                                   MODFLOW 6
                U.S. GEOLOGICAL SURVEY MODULAR HYDROLOGIC MODEL
                          GROUNDWATER FLOW MODEL (GWF)
                            VERSION 6.6.0 12/19/2024

   MODFLOW 6 compiled Dec 19 2024 21:59:25 with Intel(R) Fortran Intel(R) 64
   Compiler Classic for applications running on Intel(R) 64, Version 2021.7.0
                             Build 20220726_000000

This software has been approved for release by the U.S. Geological 
Survey (USGS). Although the software has been subjected to rigorous 
review, the USGS reserves the right to update the software as needed 
pursuant to further analysis and review. No warranty, expressed or 
implied, is made by the USGS or the U.S. Government as to the 
functionality of the software and related material nor shall the 
fact of release constitute any such warranty. Furthermore, the 
software is released on condition that neither the USGS nor the U.S. 
Government shall be held liable for any damages resulting from its 
authorized or unauthorized use. Also refer to the USGS Water 
Resources Software User Rights Notice for complete use, copyright, 
and distribution information.


As a work of the United States Government, this USGS product is 
in the public domain within the United States. You can copy, 
modify, distribute, and perform the work, even for commercial 
purposes, all without asking permission. Additionally, USGS 
waives copyright and related rights in the work worldwide 
through CC0 1.0 Universal Public Domain Dedication 
(https://creativecommons.org/publicdomain/zero/1.0/).

The following GNU Lesser General Public License (LGPL) libraries
are used in this USGS product:

    SPARSKIT version 2.0
      ilut, luson, and qsplit 
      (https://www-users.cse.umn.edu/~saad/software/SPARSKIT/)

    RCM - Reverse Cuthill McKee Ordering
      (https://people.math.sc.edu/Burkardt/f_src/rcm/rcm.html)

    BLAS - Basic Linear Algebra Subprograms Level 1
      (https://people.math.sc.edu/Burkardt/f_src/blas1_d/blas1_d.html)

    SPARSEKIT - Sparse Matrix Utility Package
      amux, dperm, dvperm, rperm, and cperm
      (https://people.sc.fsu.edu/~jburkardt/f77_src/sparsekit/sparsekit.html)

The following BSD-3 License libraries are used in this USGS product:

    Modern Fortran DAG Library
      Copyright (c) 2018, Jacob Williams
      All rights reserved.
      (https://github.com/jacobwilliams/daglib)

MODFLOW 6 compiler options: /Isrc\libmf6core.a.p /Isrc /I..\src
/Isrc\libmf6_external.a.p /MTd /nologo /warn:general /warn:truncated_source
/stand:f08 /Zi /traceback /O2 /fpe:0 /heap-arrays:0 /traceback /fpp
/Qdiag-disable:7416 /Qdiag-disable:7025 /Qdiag-disable:5268
/Qdiag-disable:10448 /Fdsrc\libmf6core.a.p\Utilities_compilerversion.F90.pdb
/module:src\libmf6core.a.p
/Fosrc/libmf6core.a.p/Utilities_compilerversion.F90.obj /c

System command used to initiate simulation:
..\..\bin\mf6.exe

MODFLOW was compiled using uniform precision.

Real Variables
  KIND: 8
  TINY (smallest non-zero value):    2.225074-308
  HUGE (largest value):    1.797693+308
  PRECISION: 15
  SIZE IN BITS: 64

Integer Variables
  KIND: 4
  HUGE (largest value): 2147483647
  SIZE IN BITS: 32

Long Integer Variables
  KIND: 8
  HUGE (largest value): 9223372036854775807
  SIZE IN BITS: 64

Logical Variables
  KIND: 4
  SIZE IN BITS: 32
 
 NAMEFILE OPTIONS:
    FLOWS WILL BE SAVED TO BUDGET FILE SPECIFIED IN OUTPUT CONTROL
 END NAMEFILE OPTIONS:

 DIS -- STRUCTURED GRID DISCRETIZATION PACKAGE, VERSION 2 : 3/27/2014 - INPUT READ FROM MEMPATH: __INPUT__/EX-GWF-ADVTIDAL/DIS                     


 NPF -- NODE PROPERTY FLOW PACKAGE, VERSION 1, 3/30/2015 INPUT READ FROM MEMPATH: __INPUT__/EX-GWF-ADVTIDAL/NPF                     


 IC -- Initial Conditions Package, Version 8, 3/28/2015 input read from mempath: __INPUT__/EX-GWF-ADVTIDAL/IC                      


 Setting Discretization Options
    Model length unit [0=UND, 1=FEET, 2=METERS, 3=CENTIMETERS] set as 2
 End Setting Discretization Options

 Setting Discretization Dimensions
    NLAY = 3
    NROW = 15
    NCOL = 10
 End Setting Discretization Dimensions

 Setting Discretization Griddata
    DELR set from input file
    DELC set from input file
    TOP set from input file
    BOTM set from input file
 End Setting Discretization Griddata

 Setting NPF Options
    Vertical flow will be adjusted for perched conditions.
    Vertical conductance varies with water table.
    Vertical conductance accounts for dewatered portion of an underlying cell.
    Specific discharge will be calculated at cell centers and written to DATA-SPDIS in budget file when requested.
 End Setting NPF Options

 Setting NPF Griddata
    ICELLTYPE set from input file
    K set from input file
    K33 set from input file
    K22 not provided.  Setting K22 = K.
 End Setting NPF Griddata


 WEL   -- WEL PACKAGE, VERSION 8, 2/22/2014 INPUT READ FROM MEMPATH: __INPUT__/EX-GWF-ADVTIDAL/WEL                     

 PROCESSING WEL BASE OPTIONS
    WEL BOUNDARIES HAVE NAMES IN LAST COLUMN.
 END OF WEL BASE OPTIONS

 PROCESSING WEL OPTIONS
 END OF WEL OPTIONS

 PROCESSING WEL BASE DIMENSIONS
    MAXBOUND =       5
 END OF WEL BASE DIMENSIONS

 RIV   -- RIV PACKAGE, VERSION 8, 2/22/2014 INPUT READ FROM MEMPATH: __INPUT__/EX-GWF-ADVTIDAL/RIV                     

 PROCESSING RIV BASE OPTIONS
    RIV BOUNDARIES HAVE NAMES IN LAST COLUMN.
 END OF RIV BASE OPTIONS

 PROCESSING RIV OPTIONS
 END OF RIV OPTIONS

 PROCESSING RIV BASE DIMENSIONS
    MAXBOUND =      20
 END OF RIV BASE DIMENSIONS

 GHB   -- GHB PACKAGE, VERSION 8, 2/22/2014 INPUT READ FROM MEMPATH: __INPUT__/EX-GWF-ADVTIDAL/GHB-TIDAL               

 PROCESSING GHB BASE OPTIONS
    GHB BOUNDARIES HAVE NAMES IN LAST COLUMN.
 END OF GHB BASE OPTIONS

 OPENED ex-gwf-advtidal.ghb.obs
 FILE TYPE:OBS   UNIT 1035   STATUS:OLD                 
 FORMAT:FORMATTED              ACCESS:SEQUENTIAL          
 ACTION:READ                


 PROCESSING GHB OPTIONS
 END OF GHB OPTIONS

 PROCESSING GHB BASE DIMENSIONS
    MAXBOUND =      30
 END OF GHB BASE DIMENSIONS

 RCH   -- RCH PACKAGE, VERSION 8, 2/22/2014 INPUT READ FROM MEMPATH: __INPUT__/EX-GWF-ADVTIDAL/RCH-ZONE_1              

 PROCESSING RCH BASE OPTIONS
    FLOWS WILL BE SAVED TO BUDGET FILE SPECIFIED IN OUTPUT CONTROL
    LISTS OF RCH CELLS WILL BE PRINTED.
    RCH FLOWS WILL BE PRINTED TO LISTING FILE.
    RCH BOUNDARIES HAVE NAMES IN LAST COLUMN.
    AUXILIARY MULTIPLIER NAME: MULTIPLIER      
 END OF RCH BASE OPTIONS

 PROCESSING RCH OPTIONS
    RECHARGE WILL BE APPLIED TO SPECIFIED CELL.
 END OF RCH OPTIONS

 PROCESSING RCH BASE DIMENSIONS
    MAXBOUND =      84
 END OF RCH BASE DIMENSIONS

 RCH   -- RCH PACKAGE, VERSION 8, 2/22/2014 INPUT READ FROM MEMPATH: __INPUT__/EX-GWF-ADVTIDAL/RCH-ZONE_2              

 PROCESSING RCH BASE OPTIONS
    FLOWS WILL BE SAVED TO BUDGET FILE SPECIFIED IN OUTPUT CONTROL
    LISTS OF RCH CELLS WILL BE PRINTED.
    RCH FLOWS WILL BE PRINTED TO LISTING FILE.
    RCH BOUNDARIES HAVE NAMES IN LAST COLUMN.
    AUXILIARY MULTIPLIER NAME: MULTIPLIER      
 END OF RCH BASE OPTIONS

 PROCESSING RCH OPTIONS
    RECHARGE WILL BE APPLIED TO SPECIFIED CELL.
 END OF RCH OPTIONS

 PROCESSING RCH BASE DIMENSIONS
    MAXBOUND =      20
 END OF RCH BASE DIMENSIONS

 RCH   -- RCH PACKAGE, VERSION 8, 2/22/2014 INPUT READ FROM MEMPATH: __INPUT__/EX-GWF-ADVTIDAL/RCH-ZONE_3              

 PROCESSING RCH BASE OPTIONS
    FLOWS WILL BE SAVED TO BUDGET FILE SPECIFIED IN OUTPUT CONTROL
    LISTS OF RCH CELLS WILL BE PRINTED.
    RCH FLOWS WILL BE PRINTED TO LISTING FILE.
    RCH BOUNDARIES HAVE NAMES IN LAST COLUMN.
    AUXILIARY MULTIPLIER NAME: MULTIPLIER      
 END OF RCH BASE OPTIONS

 PROCESSING RCH OPTIONS
    RECHARGE WILL BE APPLIED TO SPECIFIED CELL.
 END OF RCH OPTIONS

 PROCESSING RCH BASE DIMENSIONS
    MAXBOUND =      54
 END OF RCH BASE DIMENSIONS

 EVT   -- EVT PACKAGE, VERSION 8, 2/22/2014 INPUT READ FROM MEMPATH: __INPUT__/EX-GWF-ADVTIDAL/EVT                     

 PROCESSING EVT BASE OPTIONS
 END OF EVT BASE OPTIONS

 PROCESSING EVT OPTIONS
 END OF EVT OPTIONS

 PROCESSING EVT BASE DIMENSIONS
    MAXBOUND =     150
 END OF EVT BASE DIMENSIONS

 PROCESSING EVT DIMENSIONS
    NSEG = 3
 END OF EVT DIMENSIONS
    STRT set from input file

 STO -- STORAGE PACKAGE, VERSION 1, 5/19/2014 INPUT READ FROM MEMPATH: __INPUT__/EX-GWF-ADVTIDAL/STO                     


 PROCESSING STORAGE OPTIONS
 END OF STORAGE OPTIONS

The observation utility is active for "EX-GWF-ADVTIDAL"
 # File generated by Flopy version 3.9.0.dev2 on 12/19/2024 at 19:46:24.

Processing observation options:


    BINARY GRID INFORMATION WILL BE WRITTEN TO:
      UNIT NUMBER: 1038
      FILE NAME: ex-gwf-advtidal.dis.grb

 OPENED ex-gwf-advtidal.dis.grb
 FILE TYPE:DATA(BINARY)   UNIT 1038   STATUS:REPLACE             
 FORMAT:UNFORMATTED            ACCESS:STREAM              
 ACTION:READWRITE           

      THE LAST TIME STEP WILL BE PRINTED
      THE LAST TIME STEP WILL BE PRINTED
 # File generated by Flopy version 3.9.0.dev2 on 12/19/2024 at 19:46:24.

 PROCESSING OC OPTIONS

    BUDGET INFORMATION WILL BE WRITTEN TO:
      UNIT NUMBER: 1039
      FILE NAME: ex-gwf-advtidal.cbc

 OPENED ex-gwf-advtidal.cbc
 FILE TYPE:DATA(BINARY)   UNIT 1039   STATUS:REPLACE             
 FORMAT:UNFORMATTED            ACCESS:STREAM              
 ACTION:READWRITE           

    HEAD INFORMATION WILL BE WRITTEN TO:
      UNIT NUMBER: 1040
      FILE NAME: ex-gwf-advtidal.hds

 OPENED ex-gwf-advtidal.hds
 FILE TYPE:DATA(BINARY)   UNIT 1040   STATUS:REPLACE             
 FORMAT:UNFORMATTED            ACCESS:STREAM              
 ACTION:READWRITE           

 END OF OC OPTIONS

The observation utility is active for "GHB-TIDAL"
 # File generated by Flopy version 3.9.0.dev2 on 12/19/2024 at 19:46:24.

Processing observation options:



start timestep kper="1" kstp="1" mode="normal"


 BEGIN READING OUTPUT CONTROL FOR STRESS PERIOD 1
      ALL TIME STEPS WILL BE SAVED
      ALL TIME STEPS WILL BE SAVED

 END READING OUTPUT CONTROL FOR STRESS PERIOD 1


 PROCESSING STORAGE PERIOD DATA
 END PROCESSING STORAGE PERIOD DATA


 STRESS PERIOD 1 IS STEADY-STATE

 --------------------------------------------------------------------------------------------
  RCH NO.    LAYER    ROW     COL   BOUNDNAME                                   MULTIPLIER   
 --------------------------------------------------------------------------------------------
     1         1       1       1                                              1.00000000     
     2         1       1       2                                              1.00000000     
     3         1       1       3                                              0.500000000    
     4         1       2       1                                              1.00000000     
     5         1       2       2                                              1.00000000     
     6         1       2       3                                              1.00000000     
     7         1       2       4                                              0.500000000    
     8         1       3       1                                              1.00000000     
     9         1       3       2                                              1.00000000     
     10        1       3       3                                              1.00000000     
     11        1       3       4                                              1.00000000     
     12        1       3       5                                              0.500000000    
     13        1       4       1                                              1.00000000     
     14        1       4       2                                              1.00000000     
     15        1       4       3                                              1.00000000     
     16        1       4       4                                              1.00000000     
     17        1       4       5                                              1.00000000     
     18        1       4       6                                              0.500000000    
     19        1       5       1                                              1.00000000     
     20        1       5       2                                              1.00000000     
     21        1       5       3                                              1.00000000     
     22        1       5       4                                              1.00000000     
     23        1       5       5                                              1.00000000     
     24        1       5       6                                              1.00000000     
     25        1       6       1                                              1.00000000     
     26        1       6       2                                              1.00000000     
     27        1       6       3                                              1.00000000     
     28        1       6       4                                              1.00000000     
     29        1       6       5                                              1.00000000     
     30        1       6       6                                              1.00000000     
     31        1       7       1                                              1.00000000     
     32        1       7       2                                              1.00000000     
     33        1       7       3                                              1.00000000     
     34        1       7       4                                              1.00000000     
     35        1       7       5                                              1.00000000     
     36        1       7       6                                              1.00000000     
     37        1       8       1                                              1.00000000     
     38        1       8       2                                              1.00000000     
     39        1       8       3                                              1.00000000     
     40        1       8       4                                              1.00000000     
     41        1       8       5                                              1.00000000     
     42        1       8       6                                              1.00000000     
     43        1       9       1                                              1.00000000     
     44        1       9       2                                              1.00000000     
     45        1       9       3                                              1.00000000     
     46        1       9       4                                              1.00000000     
     47        1       9       5                                              1.00000000     
     48        1       9       6                                              1.00000000     
     49        1      10       1                                              1.00000000     
     50        1      10       2                                              1.00000000     
     51        1      10       3                                              1.00000000     
     52        1      10       4                                              1.00000000     
     53        1      10       5                                              1.00000000     
     54        1      10       6                                              1.00000000     
     55        1      11       1                                              1.00000000     
     56        1      11       2                                              1.00000000     
     57        1      11       3                                              1.00000000     
     58        1      11       4                                              1.00000000     
     59        1      11       5                                              1.00000000     
     60        1      11       6                                              1.00000000     
     61        1      12       1                                              1.00000000     
     62        1      12       2                                              1.00000000     
     63        1      12       3                                              1.00000000     
     64        1      12       4                                              1.00000000     
     65        1      12       5                                              1.00000000     
     66        1      12       6                                              1.00000000     
     67        1      13       1                                              1.00000000     
     68        1      13       2                                              1.00000000     
     69        1      13       3                                              1.00000000     
     70        1      13       4                                              1.00000000     
     71        1      13       5                                              1.00000000     
     72        1      13       6                                              1.00000000     
     73        1      14       1                                              1.00000000     
     74        1      14       2                                              1.00000000     
     75        1      14       3                                              1.00000000     
     76        1      14       4                                              1.00000000     
     77        1      14       5                                              1.00000000     
     78        1      14       6                                              1.00000000     
     79        1      15       1                                              1.00000000     
     80        1      15       2                                              1.00000000     
     81        1      15       3                                              1.00000000     
     82        1      15       4                                              1.00000000     
     83        1      15       5                                              1.00000000     
     84        1      15       6                                              1.00000000     
 --------------------------------------------------------------------------------------------


 --------------------------------------------------------------------------------------------
  RCH NO.    LAYER    ROW     COL   BOUNDNAME                                   MULTIPLIER   
 --------------------------------------------------------------------------------------------
     1         1       1       3                                              0.500000000    
     2         1       1       4                                              1.00000000     
     3         1       1       5                                              1.00000000     
     4         1       1       6                                              1.00000000     
     5         1       1       7                                              1.00000000     
     6         1       1       8                                              1.00000000     
     7         1       1       9                                              1.00000000     
     8         1       1      10                                              0.500000000    
     9         1       2       4                                              0.500000000    
     10        1       2       5                                              1.00000000     
     11        1       2       6                                              1.00000000     
     12        1       2       7                                              1.00000000     
     13        1       2       8                                              1.00000000     
     14        1       2       9                                              0.500000000    
     15        1       3       5                                              0.500000000    
     16        1       3       6                                              1.00000000     
     17        1       3       7                                              1.00000000     
     18        1       3       8                                              0.500000000    
     19        1       4       6                                              0.500000000    
     20        1       4       7                                              0.500000000    
 --------------------------------------------------------------------------------------------


 --------------------------------------------------------------------------------------------
  RCH NO.    LAYER    ROW     COL   BOUNDNAME                                   MULTIPLIER   
 --------------------------------------------------------------------------------------------
     1         1       1      10                                              0.500000000    
     2         1       2       9                                              0.500000000    
     3         1       2      10                                              1.00000000     
     4         1       3       8                                              0.500000000    
     5         1       3       9                                              1.00000000     
     6         1       3      10                                              1.00000000     
     7         1       4       7                                              0.500000000    
     8         1       4       8                                              1.00000000     
     9         1       4       9                                              1.00000000     
     10        1       4      10                                              1.00000000     
     11        1       5       7                                              1.00000000     
     12        1       5       8                                              1.00000000     
     13        1       5       9                                              1.00000000     
     14        1       5      10                                              1.00000000     
     15        1       6       7                                              1.00000000     
     16        1       6       8                                              1.00000000     
     17        1       6       9                                              1.00000000     
     18        1       6      10                                              1.00000000     
     19        1       7       7                                              1.00000000     
     20        1       7       8                                              1.00000000     
     21        1       7       9                                              1.00000000     
     22        1       7      10                                              1.00000000     
     23        1       8       7                                              1.00000000     
     24        1       8       8                                              1.00000000     
     25        1       8       9                                              1.00000000     
     26        1       8      10                                              1.00000000     
     27        1       9       7                                              1.00000000     
     28        1       9       8                                              1.00000000     
     29        1       9       9                                              1.00000000     
     30        1       9      10                                              1.00000000     
     31        1      10       7                                              1.00000000     
     32        1      10       8                                              1.00000000     
     33        1      10       9                                              1.00000000     
     34        1      10      10                                              1.00000000     
     35        1      11       7                                              1.00000000     
     36        1      11       8                                              1.00000000     
     37        1      11       9                                              1.00000000     
     38        1      11      10                                              1.00000000     
     39        1      12       7                                              1.00000000     
     40        1      12       8                                              1.00000000     
     41        1      12       9                                              1.00000000     
     42        1      12      10                                              1.00000000     
     43        1      13       7                                              1.00000000     
     44        1      13       8                                              1.00000000     
     45        1      13       9                                              1.00000000     
     46        1      13      10                                              1.00000000     
     47        1      14       7                                              1.00000000     
     48        1      14       8                                              1.00000000     
     49        1      14       9                                              1.00000000     
     50        1      14      10                                              1.00000000     
     51        1      15       7                                              1.00000000     
     52        1      15       8                                              1.00000000     
     53        1      15       9                                              1.00000000     
     54        1      15      10                                              1.00000000     
 --------------------------------------------------------------------------------------------


 UBDSV1 SAVING           STO-SS ON UNIT   1039 AT TIME STEP      1, STRESS PERIOD      1
 UBDSV1 SAVING           STO-SY ON UNIT   1039 AT TIME STEP      1, STRESS PERIOD      1
 UBDSV1 SAVING     FLOW-JA-FACE ON UNIT   1039 AT TIME STEP      1, STRESS PERIOD      1
 UBDSV06 SAVING       DATA-SPDIS IN MODEL EX-GWF-ADVTIDAL  PACKAGE NPF             CONNECTED TO MODEL EX-GWF-ADVTIDAL  PACKAGE NPF              ON UNIT   1039 AT TIME STEP      1, STRESS PERIOD      1
 UBDSV06 SAVING              WEL IN MODEL EX-GWF-ADVTIDAL  PACKAGE EX-GWF-ADVTIDAL CONNECTED TO MODEL EX-GWF-ADVTIDAL  PACKAGE WEL              ON UNIT   1039 AT TIME STEP      1, STRESS PERIOD      1
 UBDSV06 SAVING              RIV IN MODEL EX-GWF-ADVTIDAL  PACKAGE EX-GWF-ADVTIDAL CONNECTED TO MODEL EX-GWF-ADVTIDAL  PACKAGE RIV              ON UNIT   1039 AT TIME STEP      1, STRESS PERIOD      1
 UBDSV06 SAVING              GHB IN MODEL EX-GWF-ADVTIDAL  PACKAGE EX-GWF-ADVTIDAL CONNECTED TO MODEL EX-GWF-ADVTIDAL  PACKAGE GHB-TIDAL        ON UNIT   1039 AT TIME STEP      1, STRESS PERIOD      1
 UBDSV06 SAVING              RCH IN MODEL EX-GWF-ADVTIDAL  PACKAGE EX-GWF-ADVTIDAL CONNECTED TO MODEL EX-GWF-ADVTIDAL  PACKAGE RCH-ZONE_1       ON UNIT   1039 AT TIME STEP      1, STRESS PERIOD      1
 UBDSV06 SAVING              RCH IN MODEL EX-GWF-ADVTIDAL  PACKAGE EX-GWF-ADVTIDAL CONNECTED TO MODEL EX-GWF-ADVTIDAL  PACKAGE RCH-ZONE_2       ON UNIT   1039 AT TIME STEP      1, STRESS PERIOD      1
 UBDSV06 SAVING              RCH IN MODEL EX-GWF-ADVTIDAL  PACKAGE EX-GWF-ADVTIDAL CONNECTED TO MODEL EX-GWF-ADVTIDAL  PACKAGE RCH-ZONE_3       ON UNIT   1039 AT TIME STEP      1, STRESS PERIOD      1
 UBDSV06 SAVING              EVT IN MODEL EX-GWF-ADVTIDAL  PACKAGE EX-GWF-ADVTIDAL CONNECTED TO MODEL EX-GWF-ADVTIDAL  PACKAGE EVT              ON UNIT   1039 AT TIME STEP      1, STRESS PERIOD      1

 RCH PACKAGE (RCH-ZONE_1) FLOW RATES   PERIOD      1   STEP        1
 ----------------------------------------------------------------------------------------
   NUMBER   CELLID                    RATE       NAME                                    
 ----------------------------------------------------------------------------------------
     1      (1,1,1)               375.00000                                              
     2      (1,1,2)               375.00000                                              
     3      (1,1,3)               187.50000                                              
     4      (1,2,1)               375.00000                                              
     5      (1,2,2)               375.00000                                              
     6      (1,2,3)               375.00000                                              
     7      (1,2,4)               187.50000                                              
     8      (1,3,1)               375.00000                                              
     9      (1,3,2)               375.00000                                              
     10     (1,3,3)               375.00000                                              
     11     (1,3,4)               375.00000                                              
     12     (1,3,5)               187.50000                                              
     13     (1,4,1)               375.00000                                              
     14     (1,4,2)               375.00000                                              
     15     (1,4,3)               375.00000                                              
     16     (1,4,4)               375.00000                                              
     17     (1,4,5)               375.00000                                              
     18     (1,4,6)               187.50000                                              
     19     (1,5,1)               375.00000                                              
     20     (1,5,2)               375.00000                                              
     21     (1,5,3)               375.00000                                              
     22     (1,5,4)               375.00000                                              
     23     (1,5,5)               375.00000                                              
     24     (1,5,6)               375.00000                                              
     25     (1,6,1)               375.00000                                              
     26     (1,6,2)               375.00000                                              
     27     (1,6,3)               375.00000                                              
     28     (1,6,4)               375.00000                                              
     29     (1,6,5)               375.00000                                              
     30     (1,6,6)               375.00000                                              
     31     (1,7,1)               375.00000                                              
     32     (1,7,2)               375.00000                                              
     33     (1,7,3)               375.00000                                              
     34     (1,7,4)               375.00000                                              
     35     (1,7,5)               375.00000                                              
     36     (1,7,6)               375.00000                                              
     37     (1,8,1)               375.00000                                              
     38     (1,8,2)               375.00000                                              
     39     (1,8,3)               375.00000                                              
     40     (1,8,4)               375.00000                                              
     41     (1,8,5)               375.00000                                              
     42     (1,8,6)               375.00000                                              
     43     (1,9,1)               375.00000                                              
     44     (1,9,2)               375.00000                                              
     45     (1,9,3)               375.00000                                              
     46     (1,9,4)               375.00000                                              
     47     (1,9,5)               375.00000                                              
     48     (1,9,6)               375.00000                                              
     49     (1,10,1)              375.00000                                              
     50     (1,10,2)              375.00000                                              
     51     (1,10,3)              375.00000                                              
     52     (1,10,4)              375.00000                                              
     53     (1,10,5)              375.00000                                              
     54     (1,10,6)              375.00000                                              
     55     (1,11,1)              375.00000                                              
     56     (1,11,2)              375.00000                                              
     57     (1,11,3)              375.00000                                              
     58     (1,11,4)              375.00000                                              
     59     (1,11,5)              375.00000                                              
     60     (1,11,6)              375.00000                                              
     61     (1,12,1)              375.00000                                              
     62     (1,12,2)              375.00000                                              
     63     (1,12,3)              375.00000                                              
     64     (1,12,4)              375.00000                                              
     65     (1,12,5)              375.00000                                              
     66     (1,12,6)              375.00000                                              
     67     (1,13,1)              375.00000                                              
     68     (1,13,2)              375.00000                                              
     69     (1,13,3)              375.00000                                              
     70     (1,13,4)              375.00000                                              
     71     (1,13,5)              375.00000                                              
     72     (1,13,6)              375.00000                                              
     73     (1,14,1)              375.00000                                              
     74     (1,14,2)              375.00000                                              
     75     (1,14,3)              375.00000                                              
     76     (1,14,4)              375.00000                                              
     77     (1,14,5)              375.00000                                              
     78     (1,14,6)              375.00000                                              
     79     (1,15,1)              375.00000                                              
     80     (1,15,2)              375.00000                                              
     81     (1,15,3)              375.00000                                              
     82     (1,15,4)              375.00000                                              
     83     (1,15,5)              375.00000                                              
     84     (1,15,6)              375.00000                                              
 ----------------------------------------------------------------------------------------




 RCH PACKAGE (RCH-ZONE_2) FLOW RATES   PERIOD      1   STEP        1
 ----------------------------------------------------------------------------------------
   NUMBER   CELLID                    RATE       NAME                                    
 ----------------------------------------------------------------------------------------
     1      (1,1,3)               200.00000                                              
     2      (1,1,4)               400.00000                                              
     3      (1,1,5)               400.00000                                              
     4      (1,1,6)               400.00000                                              
     5      (1,1,7)               400.00000                                              
     6      (1,1,8)               400.00000                                              
     7      (1,1,9)               400.00000                                              
     8      (1,1,10)              200.00000                                              
     9      (1,2,4)               200.00000                                              
     10     (1,2,5)               400.00000                                              
     11     (1,2,6)               400.00000                                              
     12     (1,2,7)               400.00000                                              
     13     (1,2,8)               400.00000                                              
     14     (1,2,9)               200.00000                                              
     15     (1,3,5)               200.00000                                              
     16     (1,3,6)               400.00000                                              
     17     (1,3,7)               400.00000                                              
     18     (1,3,8)               200.00000                                              
     19     (1,4,6)               200.00000                                              
     20     (1,4,7)               200.00000                                              
 ----------------------------------------------------------------------------------------




 RCH PACKAGE (RCH-ZONE_3) FLOW RATES   PERIOD      1   STEP        1
 ----------------------------------------------------------------------------------------
   NUMBER   CELLID                    RATE       NAME                                    
 ----------------------------------------------------------------------------------------
     1      (1,1,10)              212.50000                                              
     2      (1,2,9)               212.50000                                              
     3      (1,2,10)              425.00000                                              
     4      (1,3,8)               212.50000                                              
     5      (1,3,9)               425.00000                                              
     6      (1,3,10)              425.00000                                              
     7      (1,4,7)               212.50000                                              
     8      (1,4,8)               425.00000                                              
     9      (1,4,9)               425.00000                                              
     10     (1,4,10)              425.00000                                              
     11     (1,5,7)               425.00000                                              
     12     (1,5,8)               425.00000                                              
     13     (1,5,9)               425.00000                                              
     14     (1,5,10)              425.00000                                              
     15     (1,6,7)               425.00000                                              
     16     (1,6,8)               425.00000                                              
     17     (1,6,9)               425.00000                                              
     18     (1,6,10)              425.00000                                              
     19     (1,7,7)               425.00000                                              
     20     (1,7,8)               425.00000                                              
     21     (1,7,9)               425.00000                                              
     22     (1,7,10)              425.00000                                              
     23     (1,8,7)               425.00000                                              
     24     (1,8,8)               425.00000                                              
     25     (1,8,9)               425.00000                                              
     26     (1,8,10)              425.00000                                              
     27     (1,9,7)               425.00000                                              
     28     (1,9,8)               425.00000                                              
     29     (1,9,9)               425.00000                                              
     30     (1,9,10)              425.00000                                              
     31     (1,10,7)              425.00000                                              
     32     (1,10,8)              425.00000                                              
     33     (1,10,9)              425.00000                                              
     34     (1,10,10)             425.00000                                              
     35     (1,11,7)              425.00000                                              
     36     (1,11,8)              425.00000                                              
     37     (1,11,9)              425.00000                                              
     38     (1,11,10)             425.00000                                              
     39     (1,12,7)              425.00000                                              
     40     (1,12,8)              425.00000                                              
     41     (1,12,9)              425.00000                                              
     42     (1,12,10)             425.00000                                              
     43     (1,13,7)              425.00000                                              
     44     (1,13,8)              425.00000                                              
     45     (1,13,9)              425.00000                                              
     46     (1,13,10)             425.00000                                              
     47     (1,14,7)              425.00000                                              
     48     (1,14,8)              425.00000                                              
     49     (1,14,9)              425.00000                                              
     50     (1,14,10)             425.00000                                              
     51     (1,15,7)              425.00000                                              
     52     (1,15,8)              425.00000                                              
     53     (1,15,9)              425.00000                                              
     54     (1,15,10)             425.00000                                              
 ----------------------------------------------------------------------------------------




 HEAD WILL BE SAVED ON UNIT 1040 AT END OF TIME STEP    1, STRESS PERIOD    1


  VOLUME BUDGET FOR ENTIRE MODEL AT END OF TIME STEP    1, STRESS PERIOD   1
  ---------------------------------------------------------------------------------------------------

     CUMULATIVE VOLUME      L**3       RATES FOR THIS TIME STEP      L**3/T          PACKAGE NAME    
     ------------------                 ------------------------                     ----------------

           IN:                                      IN:
           ---                                      ---
              STO-SS =           0.0000                STO-SS =           0.0000     STORAGE                          
              STO-SY =           0.0000                STO-SY =           0.0000     STORAGE                          
                 WEL =           0.0000                   WEL =           0.0000     WEL                              
                 RIV =       20452.3436                   RIV =       20452.3436     RIV                              
                 GHB =           0.0000                   GHB =           0.0000     GHB-TIDAL                        
                 RCH =       30750.0000                   RCH =       30750.0000     RCH-ZONE_1                       
                 RCH =        6400.0000                   RCH =        6400.0000     RCH-ZONE_2                       
                 RCH =       22100.0000                   RCH =       22100.0000     RCH-ZONE_3                       
                 EVT =           0.0000                   EVT =           0.0000     EVT                              

            TOTAL IN =       79702.3436              TOTAL IN =       79702.3436

          OUT:                                     OUT:
          ----                                     ----
              STO-SS =           0.0000                STO-SS =           0.0000     STORAGE                          
              STO-SY =           0.0000                STO-SY =           0.0000     STORAGE                          
                 WEL =           0.0000                   WEL =           0.0000     WEL                              
                 RIV =        4573.7559                   RIV =        4573.7559     RIV                              
                 GHB =       74876.8687                   GHB =       74876.8687     GHB-TIDAL                        
                 RCH =           0.0000                   RCH =           0.0000     RCH-ZONE_1                       
                 RCH =           0.0000                   RCH =           0.0000     RCH-ZONE_2                       
                 RCH =           0.0000                   RCH =           0.0000     RCH-ZONE_3                       
                 EVT =         251.7190                   EVT =         251.7190     EVT                              

           TOTAL OUT =       79702.3436             TOTAL OUT =       79702.3436

            IN - OUT =       7.9819E-07              IN - OUT =       7.9819E-07

 PERCENT DISCREPANCY =           0.00     PERCENT DISCREPANCY =           0.00




         TIME SUMMARY AT END OF TIME STEP    1 IN STRESS PERIOD    1
                    SECONDS     MINUTES      HOURS       DAYS        YEARS
                    -----------------------------------------------------------
   TIME STEP LENGTH  86400.      1440.0      24.000      1.0000     2.73785E-03
 STRESS PERIOD TIME  86400.      1440.0      24.000      1.0000     2.73785E-03
         TOTAL TIME  86400.      1440.0      24.000      1.0000     2.73785E-03


end timestep


start timestep kper="2" kstp="1" mode="normal"


 END OF FILE DETECTED IN OUTPUT CONTROL.
 CURRENT OUTPUT CONTROL SETTINGS WILL BE 
 REPEATED UNTIL THE END OF THE SIMULATION.

 OUTPUT CONTROL FOR STRESS PERIOD 2 IS REPEATED USING SETTINGS FROM A PREVIOUS STRESS PERIOD.


 PROCESSING STORAGE PERIOD DATA
 END PROCESSING STORAGE PERIOD DATA


 STRESS PERIOD 2 IS TRANSIENT

 UBDSV1 SAVING           STO-SS ON UNIT   1039 AT TIME STEP      1, STRESS PERIOD      2
 UBDSV1 SAVING           STO-SY ON UNIT   1039 AT TIME STEP      1, STRESS PERIOD      2
 UBDSV1 SAVING     FLOW-JA-FACE ON UNIT   1039 AT TIME STEP      1, STRESS PERIOD      2
 UBDSV06 SAVING       DATA-SPDIS IN MODEL EX-GWF-ADVTIDAL  PACKAGE NPF             CONNECTED TO MODEL EX-GWF-ADVTIDAL  PACKAGE NPF              ON UNIT   1039 AT TIME STEP      1, STRESS PERIOD      2
 UBDSV06 SAVING              WEL IN MODEL EX-GWF-ADVTIDAL  PACKAGE EX-GWF-ADVTIDAL CONNECTED TO MODEL EX-GWF-ADVTIDAL  PACKAGE WEL              ON UNIT   1039 AT TIME STEP      1, STRESS PERIOD      2
 UBDSV06 SAVING              RIV IN MODEL EX-GWF-ADVTIDAL  PACKAGE EX-GWF-ADVTIDAL CONNECTED TO MODEL EX-GWF-ADVTIDAL  PACKAGE RIV              ON UNIT   1039 AT TIME STEP      1, STRESS PERIOD      2
 UBDSV06 SAVING              GHB IN MODEL EX-GWF-ADVTIDAL  PACKAGE EX-GWF-ADVTIDAL CONNECTED TO MODEL EX-GWF-ADVTIDAL  PACKAGE GHB-TIDAL        ON UNIT   1039 AT TIME STEP      1, STRESS PERIOD      2
 UBDSV06 SAVING              RCH IN MODEL EX-GWF-ADVTIDAL  PACKAGE EX-GWF-ADVTIDAL CONNECTED TO MODEL EX-GWF-ADVTIDAL  PACKAGE RCH-ZONE_1       ON UNIT   1039 AT TIME STEP      1, STRESS PERIOD      2
 UBDSV06 SAVING              RCH IN MODEL EX-GWF-ADVTIDAL  PACKAGE EX-GWF-ADVTIDAL CONNECTED TO MODEL EX-GWF-ADVTIDAL  PACKAGE RCH-ZONE_2       ON UNIT   1039 AT TIME STEP      1, STRESS PERIOD      2
 UBDSV06 SAVING              RCH IN MODEL EX-GWF-ADVTIDAL  PACKAGE EX-GWF-ADVTIDAL CONNECTED TO MODEL EX-GWF-ADVTIDAL  PACKAGE RCH-ZONE_3       ON UNIT   1039 AT TIME STEP      1, STRESS PERIOD      2
 UBDSV06 SAVING              EVT IN MODEL EX-GWF-ADVTIDAL  PACKAGE EX-GWF-ADVTIDAL CONNECTED TO MODEL EX-GWF-ADVTIDAL  PACKAGE EVT              ON UNIT   1039 AT TIME STEP      1, STRESS PERIOD      2

 HEAD WILL BE SAVED ON UNIT 1040 AT END OF TIME STEP    1, STRESS PERIOD    2

end timestep


start timestep kper="2" kstp="2" mode="normal"

 UBDSV1 SAVING           STO-SS ON UNIT   1039 AT TIME STEP      2, STRESS PERIOD      2
 UBDSV1 SAVING           STO-SY ON UNIT   1039 AT TIME STEP      2, STRESS PERIOD      2
 UBDSV1 SAVING     FLOW-JA-FACE ON UNIT   1039 AT TIME STEP      2, STRESS PERIOD      2
 UBDSV06 SAVING       DATA-SPDIS IN MODEL EX-GWF-ADVTIDAL  PACKAGE NPF             CONNECTED TO MODEL EX-GWF-ADVTIDAL  PACKAGE NPF              ON UNIT   1039 AT TIME STEP      2, STRESS PERIOD      2
 UBDSV06 SAVING              WEL IN MODEL EX-GWF-ADVTIDAL  PACKAGE EX-GWF-ADVTIDAL CONNECTED TO MODEL EX-GWF-ADVTIDAL  PACKAGE WEL              ON UNIT   1039 AT TIME STEP      2, STRESS PERIOD      2
 UBDSV06 SAVING              RIV IN MODEL EX-GWF-ADVTIDAL  PACKAGE EX-GWF-ADVTIDAL CONNECTED TO MODEL EX-GWF-ADVTIDAL  PACKAGE RIV              ON UNIT   1039 AT TIME STEP      2, STRESS PERIOD      2
 UBDSV06 SAVING              GHB IN MODEL EX-GWF-ADVTIDAL  PACKAGE EX-GWF-ADVTIDAL CONNECTED TO MODEL EX-GWF-ADVTIDAL  PACKAGE GHB-TIDAL        ON UNIT   1039 AT TIME STEP      2, STRESS PERIOD      2
 UBDSV06 SAVING              RCH IN MODEL EX-GWF-ADVTIDAL  PACKAGE EX-GWF-ADVTIDAL CONNECTED TO MODEL EX-GWF-ADVTIDAL  PACKAGE RCH-ZONE_1       ON UNIT   1039 AT TIME STEP      2, STRESS PERIOD      2
 UBDSV06 SAVING              RCH IN MODEL EX-GWF-ADVTIDAL  PACKAGE EX-GWF-ADVTIDAL CONNECTED TO MODEL EX-GWF-ADVTIDAL  PACKAGE RCH-ZONE_2       ON UNIT   1039 AT TIME STEP      2, STRESS PERIOD      2
 UBDSV06 SAVING              RCH IN MODEL EX-GWF-ADVTIDAL  PACKAGE EX-GWF-ADVTIDAL CONNECTED TO MODEL EX-GWF-ADVTIDAL  PACKAGE RCH-ZONE_3       ON UNIT   1039 AT TIME STEP      2, STRESS PERIOD      2
 UBDSV06 SAVING              EVT IN MODEL EX-GWF-ADVTIDAL  PACKAGE EX-GWF-ADVTIDAL CONNECTED TO MODEL EX-GWF-ADVTIDAL  PACKAGE EVT              ON UNIT   1039 AT TIME STEP      2, STRESS PERIOD      2

 HEAD WILL BE SAVED ON UNIT 1040 AT END OF TIME STEP    2, STRESS PERIOD    2

end timestep


start timestep kper="2" kstp="3" mode="normal"

 UBDSV1 SAVING           STO-SS ON UNIT   1039 AT TIME STEP      3, STRESS PERIOD      2
 UBDSV1 SAVING           STO-SY ON UNIT   1039 AT TIME STEP      3, STRESS PERIOD      2
 UBDSV1 SAVING     FLOW-JA-FACE ON UNIT   1039 AT TIME STEP      3, STRESS PERIOD      2
 UBDSV06 SAVING       DATA-SPDIS IN MODEL EX-GWF-ADVTIDAL  PACKAGE NPF             CONNECTED TO MODEL EX-GWF-ADVTIDAL  PACKAGE NPF              ON UNIT   1039 AT TIME STEP      3, STRESS PERIOD      2
 UBDSV06 SAVING              WEL IN MODEL EX-GWF-ADVTIDAL  PACKAGE EX-GWF-ADVTIDAL CONNECTED TO MODEL EX-GWF-ADVTIDAL  PACKAGE WEL              ON UNIT   1039 AT TIME STEP      3, STRESS PERIOD      2
 UBDSV06 SAVING              RIV IN MODEL EX-GWF-ADVTIDAL  PACKAGE EX-GWF-ADVTIDAL CONNECTED TO MODEL EX-GWF-ADVTIDAL  PACKAGE RIV              ON UNIT   1039 AT TIME STEP      3, STRESS PERIOD      2
 UBDSV06 SAVING              GHB IN MODEL EX-GWF-ADVTIDAL  PACKAGE EX-GWF-ADVTIDAL CONNECTED TO MODEL EX-GWF-ADVTIDAL  PACKAGE GHB-TIDAL        ON UNIT   1039 AT TIME STEP      3, STRESS PERIOD      2
 UBDSV06 SAVING              RCH IN MODEL EX-GWF-ADVTIDAL  PACKAGE EX-GWF-ADVTIDAL CONNECTED TO MODEL EX-GWF-ADVTIDAL  PACKAGE RCH-ZONE_1       ON UNIT   1039 AT TIME STEP      3, STRESS PERIOD      2
 UBDSV06 SAVING              RCH IN MODEL EX-GWF-ADVTIDAL  PACKAGE EX-GWF-ADVTIDAL CONNECTED TO MODEL EX-GWF-ADVTIDAL  PACKAGE RCH-ZONE_2       ON UNIT   1039 AT TIME STEP      3, STRESS PERIOD      2
 UBDSV06 SAVING              RCH IN MODEL EX-GWF-ADVTIDAL  PACKAGE EX-GWF-ADVTIDAL CONNECTED TO MODEL EX-GWF-ADVTIDAL  PACKAGE RCH-ZONE_3       ON UNIT   1039 AT TIME STEP      3, STRESS PERIOD      2
 UBDSV06 SAVING              EVT IN MODEL EX-GWF-ADVTIDAL  PACKAGE EX-GWF-ADVTIDAL CONNECTED TO MODEL EX-GWF-ADVTIDAL  PACKAGE EVT              ON UNIT   1039 AT TIME STEP      3, STRESS PERIOD      2

 HEAD WILL BE SAVED ON UNIT 1040 AT END OF TIME STEP    3, STRESS PERIOD    2

end timestep


start timestep kper="2" kstp="4" mode="normal"

 UBDSV1 SAVING           STO-SS ON UNIT   1039 AT TIME STEP      4, STRESS PERIOD      2
 UBDSV1 SAVING           STO-SY ON UNIT   1039 AT TIME STEP      4, STRESS PERIOD      2
 UBDSV1 SAVING     FLOW-JA-FACE ON UNIT   1039 AT TIME STEP      4, STRESS PERIOD      2
 UBDSV06 SAVING       DATA-SPDIS IN MODEL EX-GWF-ADVTIDAL  PACKAGE NPF             CONNECTED TO MODEL EX-GWF-ADVTIDAL  PACKAGE NPF              ON UNIT   1039 AT TIME STEP      4, STRESS PERIOD      2
 UBDSV06 SAVING              WEL IN MODEL EX-GWF-ADVTIDAL  PACKAGE EX-GWF-ADVTIDAL CONNECTED TO MODEL EX-GWF-ADVTIDAL  PACKAGE WEL              ON UNIT   1039 AT TIME STEP      4, STRESS PERIOD      2
 UBDSV06 SAVING              RIV IN MODEL EX-GWF-ADVTIDAL  PACKAGE EX-GWF-ADVTIDAL CONNECTED TO MODEL EX-GWF-ADVTIDAL  PACKAGE RIV              ON UNIT   1039 AT TIME STEP      4, STRESS PERIOD      2
 UBDSV06 SAVING              GHB IN MODEL EX-GWF-ADVTIDAL  PACKAGE EX-GWF-ADVTIDAL CONNECTED TO MODEL EX-GWF-ADVTIDAL  PACKAGE GHB-TIDAL        ON UNIT   1039 AT TIME STEP      4, STRESS PERIOD      2
 UBDSV06 SAVING              RCH IN MODEL EX-GWF-ADVTIDAL  PACKAGE EX-GWF-ADVTIDAL CONNECTED TO MODEL EX-GWF-ADVTIDAL  PACKAGE RCH-ZONE_1       ON UNIT   1039 AT TIME STEP      4, STRESS PERIOD      2
 UBDSV06 SAVING              RCH IN MODEL EX-GWF-ADVTIDAL  PACKAGE EX-GWF-ADVTIDAL CONNECTED TO MODEL EX-GWF-ADVTIDAL  PACKAGE RCH-ZONE_2       ON UNIT   1039 AT TIME STEP      4, STRESS PERIOD      2
 UBDSV06 SAVING              RCH IN MODEL EX-GWF-ADVTIDAL  PACKAGE EX-GWF-ADVTIDAL CONNECTED TO MODEL EX-GWF-ADVTIDAL  PACKAGE RCH-ZONE_3       ON UNIT   1039 AT TIME STEP      4, STRESS PERIOD      2
 UBDSV06 SAVING              EVT IN MODEL EX-GWF-ADVTIDAL  PACKAGE EX-GWF-ADVTIDAL CONNECTED TO MODEL EX-GWF-ADVTIDAL  PACKAGE EVT              ON UNIT   1039 AT TIME STEP      4, STRESS PERIOD      2

 HEAD WILL BE SAVED ON UNIT 1040 AT END OF TIME STEP    4, STRESS PERIOD    2

end timestep


start timestep kper="2" kstp="5" mode="normal"

 UBDSV1 SAVING           STO-SS ON UNIT   1039 AT TIME STEP      5, STRESS PERIOD      2
 UBDSV1 SAVING           STO-SY ON UNIT   1039 AT TIME STEP      5, STRESS PERIOD      2
 UBDSV1 SAVING     FLOW-JA-FACE ON UNIT   1039 AT TIME STEP      5, STRESS PERIOD      2
 UBDSV06 SAVING       DATA-SPDIS IN MODEL EX-GWF-ADVTIDAL  PACKAGE NPF             CONNECTED TO MODEL EX-GWF-ADVTIDAL  PACKAGE NPF              ON UNIT   1039 AT TIME STEP      5, STRESS PERIOD      2
 UBDSV06 SAVING              WEL IN MODEL EX-GWF-ADVTIDAL  PACKAGE EX-GWF-ADVTIDAL CONNECTED TO MODEL EX-GWF-ADVTIDAL  PACKAGE WEL              ON UNIT   1039 AT TIME STEP      5, STRESS PERIOD      2
 UBDSV06 SAVING              RIV IN MODEL EX-GWF-ADVTIDAL  PACKAGE EX-GWF-ADVTIDAL CONNECTED TO MODEL EX-GWF-ADVTIDAL  PACKAGE RIV              ON UNIT   1039 AT TIME STEP      5, STRESS PERIOD      2
 UBDSV06 SAVING              GHB IN MODEL EX-GWF-ADVTIDAL  PACKAGE EX-GWF-ADVTIDAL CONNECTED TO MODEL EX-GWF-ADVTIDAL  PACKAGE GHB-TIDAL        ON UNIT   1039 AT TIME STEP      5, STRESS PERIOD      2
 UBDSV06 SAVING              RCH IN MODEL EX-GWF-ADVTIDAL  PACKAGE EX-GWF-ADVTIDAL CONNECTED TO MODEL EX-GWF-ADVTIDAL  PACKAGE RCH-ZONE_1       ON UNIT   1039 AT TIME STEP      5, STRESS PERIOD      2
 UBDSV06 SAVING              RCH IN MODEL EX-GWF-ADVTIDAL  PACKAGE EX-GWF-ADVTIDAL CONNECTED TO MODEL EX-GWF-ADVTIDAL  PACKAGE RCH-ZONE_2       ON UNIT   1039 AT TIME STEP      5, STRESS PERIOD      2
 UBDSV06 SAVING              RCH IN MODEL EX-GWF-ADVTIDAL  PACKAGE EX-GWF-ADVTIDAL CONNECTED TO MODEL EX-GWF-ADVTIDAL  PACKAGE RCH-ZONE_3       ON UNIT   1039 AT TIME STEP      5, STRESS PERIOD      2
 UBDSV06 SAVING              EVT IN MODEL EX-GWF-ADVTIDAL  PACKAGE EX-GWF-ADVTIDAL CONNECTED TO MODEL EX-GWF-ADVTIDAL  PACKAGE EVT              ON UNIT   1039 AT TIME STEP      5, STRESS PERIOD      2

 HEAD WILL BE SAVED ON UNIT 1040 AT END OF TIME STEP    5, STRESS PERIOD    2

end timestep


start timestep kper="2" kstp="6" mode="normal"

 UBDSV1 SAVING           STO-SS ON UNIT   1039 AT TIME STEP      6, STRESS PERIOD      2
 UBDSV1 SAVING           STO-SY ON UNIT   1039 AT TIME STEP      6, STRESS PERIOD      2
 UBDSV1 SAVING     FLOW-JA-FACE ON UNIT   1039 AT TIME STEP      6, STRESS PERIOD      2
 UBDSV06 SAVING       DATA-SPDIS IN MODEL EX-GWF-ADVTIDAL  PACKAGE NPF             CONNECTED TO MODEL EX-GWF-ADVTIDAL  PACKAGE NPF              ON UNIT   1039 AT TIME STEP      6, STRESS PERIOD      2
 UBDSV06 SAVING              WEL IN MODEL EX-GWF-ADVTIDAL  PACKAGE EX-GWF-ADVTIDAL CONNECTED TO MODEL EX-GWF-ADVTIDAL  PACKAGE WEL              ON UNIT   1039 AT TIME STEP      6, STRESS PERIOD      2
 UBDSV06 SAVING              RIV IN MODEL EX-GWF-ADVTIDAL  PACKAGE EX-GWF-ADVTIDAL CONNECTED TO MODEL EX-GWF-ADVTIDAL  PACKAGE RIV              ON UNIT   1039 AT TIME STEP      6, STRESS PERIOD      2
 UBDSV06 SAVING              GHB IN MODEL EX-GWF-ADVTIDAL  PACKAGE EX-GWF-ADVTIDAL CONNECTED TO MODEL EX-GWF-ADVTIDAL  PACKAGE GHB-TIDAL        ON UNIT   1039 AT TIME STEP      6, STRESS PERIOD      2
 UBDSV06 SAVING              RCH IN MODEL EX-GWF-ADVTIDAL  PACKAGE EX-GWF-ADVTIDAL CONNECTED TO MODEL EX-GWF-ADVTIDAL  PACKAGE RCH-ZONE_1       ON UNIT   1039 AT TIME STEP      6, STRESS PERIOD      2
 UBDSV06 SAVING              RCH IN MODEL EX-GWF-ADVTIDAL  PACKAGE EX-GWF-ADVTIDAL CONNECTED TO MODEL EX-GWF-ADVTIDAL  PACKAGE RCH-ZONE_2       ON UNIT   1039 AT TIME STEP      6, STRESS PERIOD      2
 UBDSV06 SAVING              RCH IN MODEL EX-GWF-ADVTIDAL  PACKAGE EX-GWF-ADVTIDAL CONNECTED TO MODEL EX-GWF-ADVTIDAL  PACKAGE RCH-ZONE_3       ON UNIT   1039 AT TIME STEP      6, STRESS PERIOD      2
 UBDSV06 SAVING              EVT IN MODEL EX-GWF-ADVTIDAL  PACKAGE EX-GWF-ADVTIDAL CONNECTED TO MODEL EX-GWF-ADVTIDAL  PACKAGE EVT              ON UNIT   1039 AT TIME STEP      6, STRESS PERIOD      2

 HEAD WILL BE SAVED ON UNIT 1040 AT END OF TIME STEP    6, STRESS PERIOD    2

end timestep


start timestep kper="2" kstp="7" mode="normal"

 UBDSV1 SAVING           STO-SS ON UNIT   1039 AT TIME STEP      7, STRESS PERIOD      2
 UBDSV1 SAVING           STO-SY ON UNIT   1039 AT TIME STEP      7, STRESS PERIOD      2
 UBDSV1 SAVING     FLOW-JA-FACE ON UNIT   1039 AT TIME STEP      7, STRESS PERIOD      2
 UBDSV06 SAVING       DATA-SPDIS IN MODEL EX-GWF-ADVTIDAL  PACKAGE NPF             CONNECTED TO MODEL EX-GWF-ADVTIDAL  PACKAGE NPF              ON UNIT   1039 AT TIME STEP      7, STRESS PERIOD      2
 UBDSV06 SAVING              WEL IN MODEL EX-GWF-ADVTIDAL  PACKAGE EX-GWF-ADVTIDAL CONNECTED TO MODEL EX-GWF-ADVTIDAL  PACKAGE WEL              ON UNIT   1039 AT TIME STEP      7, STRESS PERIOD      2
 UBDSV06 SAVING              RIV IN MODEL EX-GWF-ADVTIDAL  PACKAGE EX-GWF-ADVTIDAL CONNECTED TO MODEL EX-GWF-ADVTIDAL  PACKAGE RIV              ON UNIT   1039 AT TIME STEP      7, STRESS PERIOD      2
 UBDSV06 SAVING              GHB IN MODEL EX-GWF-ADVTIDAL  PACKAGE EX-GWF-ADVTIDAL CONNECTED TO MODEL EX-GWF-ADVTIDAL  PACKAGE GHB-TIDAL        ON UNIT   1039 AT TIME STEP      7, STRESS PERIOD      2
 UBDSV06 SAVING              RCH IN MODEL EX-GWF-ADVTIDAL  PACKAGE EX-GWF-ADVTIDAL CONNECTED TO MODEL EX-GWF-ADVTIDAL  PACKAGE RCH-ZONE_1       ON UNIT   1039 AT TIME STEP      7, STRESS PERIOD      2
 UBDSV06 SAVING              RCH IN MODEL EX-GWF-ADVTIDAL  PACKAGE EX-GWF-ADVTIDAL CONNECTED TO MODEL EX-GWF-ADVTIDAL  PACKAGE RCH-ZONE_2       ON UNIT   1039 AT TIME STEP      7, STRESS PERIOD      2
 UBDSV06 SAVING              RCH IN MODEL EX-GWF-ADVTIDAL  PACKAGE EX-GWF-ADVTIDAL CONNECTED TO MODEL EX-GWF-ADVTIDAL  PACKAGE RCH-ZONE_3       ON UNIT   1039 AT TIME STEP      7, STRESS PERIOD      2
 UBDSV06 SAVING              EVT IN MODEL EX-GWF-ADVTIDAL  PACKAGE EX-GWF-ADVTIDAL CONNECTED TO MODEL EX-GWF-ADVTIDAL  PACKAGE EVT              ON UNIT   1039 AT TIME STEP      7, STRESS PERIOD      2

 HEAD WILL BE SAVED ON UNIT 1040 AT END OF TIME STEP    7, STRESS PERIOD    2

end timestep


start timestep kper="2" kstp="8" mode="normal"

 UBDSV1 SAVING           STO-SS ON UNIT   1039 AT TIME STEP      8, STRESS PERIOD      2
 UBDSV1 SAVING           STO-SY ON UNIT   1039 AT TIME STEP      8, STRESS PERIOD      2
 UBDSV1 SAVING     FLOW-JA-FACE ON UNIT   1039 AT TIME STEP      8, STRESS PERIOD      2
 UBDSV06 SAVING       DATA-SPDIS IN MODEL EX-GWF-ADVTIDAL  PACKAGE NPF             CONNECTED TO MODEL EX-GWF-ADVTIDAL  PACKAGE NPF              ON UNIT   1039 AT TIME STEP      8, STRESS PERIOD      2
 UBDSV06 SAVING              WEL IN MODEL EX-GWF-ADVTIDAL  PACKAGE EX-GWF-ADVTIDAL CONNECTED TO MODEL EX-GWF-ADVTIDAL  PACKAGE WEL              ON UNIT   1039 AT TIME STEP      8, STRESS PERIOD      2
 UBDSV06 SAVING              RIV IN MODEL EX-GWF-ADVTIDAL  PACKAGE EX-GWF-ADVTIDAL CONNECTED TO MODEL EX-GWF-ADVTIDAL  PACKAGE RIV              ON UNIT   1039 AT TIME STEP      8, STRESS PERIOD      2
 UBDSV06 SAVING              GHB IN MODEL EX-GWF-ADVTIDAL  PACKAGE EX-GWF-ADVTIDAL CONNECTED TO MODEL EX-GWF-ADVTIDAL  PACKAGE GHB-TIDAL        ON UNIT   1039 AT TIME STEP      8, STRESS PERIOD      2
 UBDSV06 SAVING              RCH IN MODEL EX-GWF-ADVTIDAL  PACKAGE EX-GWF-ADVTIDAL CONNECTED TO MODEL EX-GWF-ADVTIDAL  PACKAGE RCH-ZONE_1       ON UNIT   1039 AT TIME STEP      8, STRESS PERIOD      2
 UBDSV06 SAVING              RCH IN MODEL EX-GWF-ADVTIDAL  PACKAGE EX-GWF-ADVTIDAL CONNECTED TO MODEL EX-GWF-ADVTIDAL  PACKAGE RCH-ZONE_2       ON UNIT   1039 AT TIME STEP      8, STRESS PERIOD      2
 UBDSV06 SAVING              RCH IN MODEL EX-GWF-ADVTIDAL  PACKAGE EX-GWF-ADVTIDAL CONNECTED TO MODEL EX-GWF-ADVTIDAL  PACKAGE RCH-ZONE_3       ON UNIT   1039 AT TIME STEP      8, STRESS PERIOD      2
 UBDSV06 SAVING              EVT IN MODEL EX-GWF-ADVTIDAL  PACKAGE EX-GWF-ADVTIDAL CONNECTED TO MODEL EX-GWF-ADVTIDAL  PACKAGE EVT              ON UNIT   1039 AT TIME STEP      8, STRESS PERIOD      2

 HEAD WILL BE SAVED ON UNIT 1040 AT END OF TIME STEP    8, STRESS PERIOD    2

end timestep


start timestep kper="2" kstp="9" mode="normal"

 UBDSV1 SAVING           STO-SS ON UNIT   1039 AT TIME STEP      9, STRESS PERIOD      2
 UBDSV1 SAVING           STO-SY ON UNIT   1039 AT TIME STEP      9, STRESS PERIOD      2
 UBDSV1 SAVING     FLOW-JA-FACE ON UNIT   1039 AT TIME STEP      9, STRESS PERIOD      2
 UBDSV06 SAVING       DATA-SPDIS IN MODEL EX-GWF-ADVTIDAL  PACKAGE NPF             CONNECTED TO MODEL EX-GWF-ADVTIDAL  PACKAGE NPF              ON UNIT   1039 AT TIME STEP      9, STRESS PERIOD      2
 UBDSV06 SAVING              WEL IN MODEL EX-GWF-ADVTIDAL  PACKAGE EX-GWF-ADVTIDAL CONNECTED TO MODEL EX-GWF-ADVTIDAL  PACKAGE WEL              ON UNIT   1039 AT TIME STEP      9, STRESS PERIOD      2
 UBDSV06 SAVING              RIV IN MODEL EX-GWF-ADVTIDAL  PACKAGE EX-GWF-ADVTIDAL CONNECTED TO MODEL EX-GWF-ADVTIDAL  PACKAGE RIV              ON UNIT   1039 AT TIME STEP      9, STRESS PERIOD      2
 UBDSV06 SAVING              GHB IN MODEL EX-GWF-ADVTIDAL  PACKAGE EX-GWF-ADVTIDAL CONNECTED TO MODEL EX-GWF-ADVTIDAL  PACKAGE GHB-TIDAL        ON UNIT   1039 AT TIME STEP      9, STRESS PERIOD      2
 UBDSV06 SAVING              RCH IN MODEL EX-GWF-ADVTIDAL  PACKAGE EX-GWF-ADVTIDAL CONNECTED TO MODEL EX-GWF-ADVTIDAL  PACKAGE RCH-ZONE_1       ON UNIT   1039 AT TIME STEP      9, STRESS PERIOD      2
 UBDSV06 SAVING              RCH IN MODEL EX-GWF-ADVTIDAL  PACKAGE EX-GWF-ADVTIDAL CONNECTED TO MODEL EX-GWF-ADVTIDAL  PACKAGE RCH-ZONE_2       ON UNIT   1039 AT TIME STEP      9, STRESS PERIOD      2
 UBDSV06 SAVING              RCH IN MODEL EX-GWF-ADVTIDAL  PACKAGE EX-GWF-ADVTIDAL CONNECTED TO MODEL EX-GWF-ADVTIDAL  PACKAGE RCH-ZONE_3       ON UNIT   1039 AT TIME STEP      9, STRESS PERIOD      2
 UBDSV06 SAVING              EVT IN MODEL EX-GWF-ADVTIDAL  PACKAGE EX-GWF-ADVTIDAL CONNECTED TO MODEL EX-GWF-ADVTIDAL  PACKAGE EVT              ON UNIT   1039 AT TIME STEP      9, STRESS PERIOD      2

 HEAD WILL BE SAVED ON UNIT 1040 AT END OF TIME STEP    9, STRESS PERIOD    2

end timestep


start timestep kper="2" kstp="10" mode="normal"

 UBDSV1 SAVING           STO-SS ON UNIT   1039 AT TIME STEP     10, STRESS PERIOD      2
 UBDSV1 SAVING           STO-SY ON UNIT   1039 AT TIME STEP     10, STRESS PERIOD      2
 UBDSV1 SAVING     FLOW-JA-FACE ON UNIT   1039 AT TIME STEP     10, STRESS PERIOD      2
 UBDSV06 SAVING       DATA-SPDIS IN MODEL EX-GWF-ADVTIDAL  PACKAGE NPF             CONNECTED TO MODEL EX-GWF-ADVTIDAL  PACKAGE NPF              ON UNIT   1039 AT TIME STEP     10, STRESS PERIOD      2
 UBDSV06 SAVING              WEL IN MODEL EX-GWF-ADVTIDAL  PACKAGE EX-GWF-ADVTIDAL CONNECTED TO MODEL EX-GWF-ADVTIDAL  PACKAGE WEL              ON UNIT   1039 AT TIME STEP     10, STRESS PERIOD      2
 UBDSV06 SAVING              RIV IN MODEL EX-GWF-ADVTIDAL  PACKAGE EX-GWF-ADVTIDAL CONNECTED TO MODEL EX-GWF-ADVTIDAL  PACKAGE RIV              ON UNIT   1039 AT TIME STEP     10, STRESS PERIOD      2
 UBDSV06 SAVING              GHB IN MODEL EX-GWF-ADVTIDAL  PACKAGE EX-GWF-ADVTIDAL CONNECTED TO MODEL EX-GWF-ADVTIDAL  PACKAGE GHB-TIDAL        ON UNIT   1039 AT TIME STEP     10, STRESS PERIOD      2
 UBDSV06 SAVING              RCH IN MODEL EX-GWF-ADVTIDAL  PACKAGE EX-GWF-ADVTIDAL CONNECTED TO MODEL EX-GWF-ADVTIDAL  PACKAGE RCH-ZONE_1       ON UNIT   1039 AT TIME STEP     10, STRESS PERIOD      2
 UBDSV06 SAVING              RCH IN MODEL EX-GWF-ADVTIDAL  PACKAGE EX-GWF-ADVTIDAL CONNECTED TO MODEL EX-GWF-ADVTIDAL  PACKAGE RCH-ZONE_2       ON UNIT   1039 AT TIME STEP     10, STRESS PERIOD      2
 UBDSV06 SAVING              RCH IN MODEL EX-GWF-ADVTIDAL  PACKAGE EX-GWF-ADVTIDAL CONNECTED TO MODEL EX-GWF-ADVTIDAL  PACKAGE RCH-ZONE_3       ON UNIT   1039 AT TIME STEP     10, STRESS PERIOD      2
 UBDSV06 SAVING              EVT IN MODEL EX-GWF-ADVTIDAL  PACKAGE EX-GWF-ADVTIDAL CONNECTED TO MODEL EX-GWF-ADVTIDAL  PACKAGE EVT              ON UNIT   1039 AT TIME STEP     10, STRESS PERIOD      2

 HEAD WILL BE SAVED ON UNIT 1040 AT END OF TIME STEP   10, STRESS PERIOD    2

end timestep


start timestep kper="2" kstp="11" mode="normal"

 UBDSV1 SAVING           STO-SS ON UNIT   1039 AT TIME STEP     11, STRESS PERIOD      2
 UBDSV1 SAVING           STO-SY ON UNIT   1039 AT TIME STEP     11, STRESS PERIOD      2
 UBDSV1 SAVING     FLOW-JA-FACE ON UNIT   1039 AT TIME STEP     11, STRESS PERIOD      2
 UBDSV06 SAVING       DATA-SPDIS IN MODEL EX-GWF-ADVTIDAL  PACKAGE NPF             CONNECTED TO MODEL EX-GWF-ADVTIDAL  PACKAGE NPF              ON UNIT   1039 AT TIME STEP     11, STRESS PERIOD      2
 UBDSV06 SAVING              WEL IN MODEL EX-GWF-ADVTIDAL  PACKAGE EX-GWF-ADVTIDAL CONNECTED TO MODEL EX-GWF-ADVTIDAL  PACKAGE WEL              ON UNIT   1039 AT TIME STEP     11, STRESS PERIOD      2
 UBDSV06 SAVING              RIV IN MODEL EX-GWF-ADVTIDAL  PACKAGE EX-GWF-ADVTIDAL CONNECTED TO MODEL EX-GWF-ADVTIDAL  PACKAGE RIV              ON UNIT   1039 AT TIME STEP     11, STRESS PERIOD      2
 UBDSV06 SAVING              GHB IN MODEL EX-GWF-ADVTIDAL  PACKAGE EX-GWF-ADVTIDAL CONNECTED TO MODEL EX-GWF-ADVTIDAL  PACKAGE GHB-TIDAL        ON UNIT   1039 AT TIME STEP     11, STRESS PERIOD      2
 UBDSV06 SAVING              RCH IN MODEL EX-GWF-ADVTIDAL  PACKAGE EX-GWF-ADVTIDAL CONNECTED TO MODEL EX-GWF-ADVTIDAL  PACKAGE RCH-ZONE_1       ON UNIT   1039 AT TIME STEP     11, STRESS PERIOD      2
 UBDSV06 SAVING              RCH IN MODEL EX-GWF-ADVTIDAL  PACKAGE EX-GWF-ADVTIDAL CONNECTED TO MODEL EX-GWF-ADVTIDAL  PACKAGE RCH-ZONE_2       ON UNIT   1039 AT TIME STEP     11, STRESS PERIOD      2
 UBDSV06 SAVING              RCH IN MODEL EX-GWF-ADVTIDAL  PACKAGE EX-GWF-ADVTIDAL CONNECTED TO MODEL EX-GWF-ADVTIDAL  PACKAGE RCH-ZONE_3       ON UNIT   1039 AT TIME STEP     11, STRESS PERIOD      2
 UBDSV06 SAVING              EVT IN MODEL EX-GWF-ADVTIDAL  PACKAGE EX-GWF-ADVTIDAL CONNECTED TO MODEL EX-GWF-ADVTIDAL  PACKAGE EVT              ON UNIT   1039 AT TIME STEP     11, STRESS PERIOD      2

 HEAD WILL BE SAVED ON UNIT 1040 AT END OF TIME STEP   11, STRESS PERIOD    2

end timestep


start timestep kper="2" kstp="12" mode="normal"

 UBDSV1 SAVING           STO-SS ON UNIT   1039 AT TIME STEP     12, STRESS PERIOD      2
 UBDSV1 SAVING           STO-SY ON UNIT   1039 AT TIME STEP     12, STRESS PERIOD      2
 UBDSV1 SAVING     FLOW-JA-FACE ON UNIT   1039 AT TIME STEP     12, STRESS PERIOD      2
 UBDSV06 SAVING       DATA-SPDIS IN MODEL EX-GWF-ADVTIDAL  PACKAGE NPF             CONNECTED TO MODEL EX-GWF-ADVTIDAL  PACKAGE NPF              ON UNIT   1039 AT TIME STEP     12, STRESS PERIOD      2
 UBDSV06 SAVING              WEL IN MODEL EX-GWF-ADVTIDAL  PACKAGE EX-GWF-ADVTIDAL CONNECTED TO MODEL EX-GWF-ADVTIDAL  PACKAGE WEL              ON UNIT   1039 AT TIME STEP     12, STRESS PERIOD      2
 UBDSV06 SAVING              RIV IN MODEL EX-GWF-ADVTIDAL  PACKAGE EX-GWF-ADVTIDAL CONNECTED TO MODEL EX-GWF-ADVTIDAL  PACKAGE RIV              ON UNIT   1039 AT TIME STEP     12, STRESS PERIOD      2
 UBDSV06 SAVING              GHB IN MODEL EX-GWF-ADVTIDAL  PACKAGE EX-GWF-ADVTIDAL CONNECTED TO MODEL EX-GWF-ADVTIDAL  PACKAGE GHB-TIDAL        ON UNIT   1039 AT TIME STEP     12, STRESS PERIOD      2
 UBDSV06 SAVING              RCH IN MODEL EX-GWF-ADVTIDAL  PACKAGE EX-GWF-ADVTIDAL CONNECTED TO MODEL EX-GWF-ADVTIDAL  PACKAGE RCH-ZONE_1       ON UNIT   1039 AT TIME STEP     12, STRESS PERIOD      2
 UBDSV06 SAVING              RCH IN MODEL EX-GWF-ADVTIDAL  PACKAGE EX-GWF-ADVTIDAL CONNECTED TO MODEL EX-GWF-ADVTIDAL  PACKAGE RCH-ZONE_2       ON UNIT   1039 AT TIME STEP     12, STRESS PERIOD      2
 UBDSV06 SAVING              RCH IN MODEL EX-GWF-ADVTIDAL  PACKAGE EX-GWF-ADVTIDAL CONNECTED TO MODEL EX-GWF-ADVTIDAL  PACKAGE RCH-ZONE_3       ON UNIT   1039 AT TIME STEP     12, STRESS PERIOD      2
 UBDSV06 SAVING              EVT IN MODEL EX-GWF-ADVTIDAL  PACKAGE EX-GWF-ADVTIDAL CONNECTED TO MODEL EX-GWF-ADVTIDAL  PACKAGE EVT              ON UNIT   1039 AT TIME STEP     12, STRESS PERIOD      2

 HEAD WILL BE SAVED ON UNIT 1040 AT END OF TIME STEP   12, STRESS PERIOD    2

end timestep


start timestep kper="2" kstp="13" mode="normal"

 UBDSV1 SAVING           STO-SS ON UNIT   1039 AT TIME STEP     13, STRESS PERIOD      2
 UBDSV1 SAVING           STO-SY ON UNIT   1039 AT TIME STEP     13, STRESS PERIOD      2
 UBDSV1 SAVING     FLOW-JA-FACE ON UNIT   1039 AT TIME STEP     13, STRESS PERIOD      2
 UBDSV06 SAVING       DATA-SPDIS IN MODEL EX-GWF-ADVTIDAL  PACKAGE NPF             CONNECTED TO MODEL EX-GWF-ADVTIDAL  PACKAGE NPF              ON UNIT   1039 AT TIME STEP     13, STRESS PERIOD      2
 UBDSV06 SAVING              WEL IN MODEL EX-GWF-ADVTIDAL  PACKAGE EX-GWF-ADVTIDAL CONNECTED TO MODEL EX-GWF-ADVTIDAL  PACKAGE WEL              ON UNIT   1039 AT TIME STEP     13, STRESS PERIOD      2
 UBDSV06 SAVING              RIV IN MODEL EX-GWF-ADVTIDAL  PACKAGE EX-GWF-ADVTIDAL CONNECTED TO MODEL EX-GWF-ADVTIDAL  PACKAGE RIV              ON UNIT   1039 AT TIME STEP     13, STRESS PERIOD      2
 UBDSV06 SAVING              GHB IN MODEL EX-GWF-ADVTIDAL  PACKAGE EX-GWF-ADVTIDAL CONNECTED TO MODEL EX-GWF-ADVTIDAL  PACKAGE GHB-TIDAL        ON UNIT   1039 AT TIME STEP     13, STRESS PERIOD      2
 UBDSV06 SAVING              RCH IN MODEL EX-GWF-ADVTIDAL  PACKAGE EX-GWF-ADVTIDAL CONNECTED TO MODEL EX-GWF-ADVTIDAL  PACKAGE RCH-ZONE_1       ON UNIT   1039 AT TIME STEP     13, STRESS PERIOD      2
 UBDSV06 SAVING              RCH IN MODEL EX-GWF-ADVTIDAL  PACKAGE EX-GWF-ADVTIDAL CONNECTED TO MODEL EX-GWF-ADVTIDAL  PACKAGE RCH-ZONE_2       ON UNIT   1039 AT TIME STEP     13, STRESS PERIOD      2
 UBDSV06 SAVING              RCH IN MODEL EX-GWF-ADVTIDAL  PACKAGE EX-GWF-ADVTIDAL CONNECTED TO MODEL EX-GWF-ADVTIDAL  PACKAGE RCH-ZONE_3       ON UNIT   1039 AT TIME STEP     13, STRESS PERIOD      2
 UBDSV06 SAVING              EVT IN MODEL EX-GWF-ADVTIDAL  PACKAGE EX-GWF-ADVTIDAL CONNECTED TO MODEL EX-GWF-ADVTIDAL  PACKAGE EVT              ON UNIT   1039 AT TIME STEP     13, STRESS PERIOD      2

 HEAD WILL BE SAVED ON UNIT 1040 AT END OF TIME STEP   13, STRESS PERIOD    2

end timestep


start timestep kper="2" kstp="14" mode="normal"

 UBDSV1 SAVING           STO-SS ON UNIT   1039 AT TIME STEP     14, STRESS PERIOD      2
 UBDSV1 SAVING           STO-SY ON UNIT   1039 AT TIME STEP     14, STRESS PERIOD      2
 UBDSV1 SAVING     FLOW-JA-FACE ON UNIT   1039 AT TIME STEP     14, STRESS PERIOD      2
 UBDSV06 SAVING       DATA-SPDIS IN MODEL EX-GWF-ADVTIDAL  PACKAGE NPF             CONNECTED TO MODEL EX-GWF-ADVTIDAL  PACKAGE NPF              ON UNIT   1039 AT TIME STEP     14, STRESS PERIOD      2
 UBDSV06 SAVING              WEL IN MODEL EX-GWF-ADVTIDAL  PACKAGE EX-GWF-ADVTIDAL CONNECTED TO MODEL EX-GWF-ADVTIDAL  PACKAGE WEL              ON UNIT   1039 AT TIME STEP     14, STRESS PERIOD      2
 UBDSV06 SAVING              RIV IN MODEL EX-GWF-ADVTIDAL  PACKAGE EX-GWF-ADVTIDAL CONNECTED TO MODEL EX-GWF-ADVTIDAL  PACKAGE RIV              ON UNIT   1039 AT TIME STEP     14, STRESS PERIOD      2
 UBDSV06 SAVING              GHB IN MODEL EX-GWF-ADVTIDAL  PACKAGE EX-GWF-ADVTIDAL CONNECTED TO MODEL EX-GWF-ADVTIDAL  PACKAGE GHB-TIDAL        ON UNIT   1039 AT TIME STEP     14, STRESS PERIOD      2
 UBDSV06 SAVING              RCH IN MODEL EX-GWF-ADVTIDAL  PACKAGE EX-GWF-ADVTIDAL CONNECTED TO MODEL EX-GWF-ADVTIDAL  PACKAGE RCH-ZONE_1       ON UNIT   1039 AT TIME STEP     14, STRESS PERIOD      2
 UBDSV06 SAVING              RCH IN MODEL EX-GWF-ADVTIDAL  PACKAGE EX-GWF-ADVTIDAL CONNECTED TO MODEL EX-GWF-ADVTIDAL  PACKAGE RCH-ZONE_2       ON UNIT   1039 AT TIME STEP     14, STRESS PERIOD      2
 UBDSV06 SAVING              RCH IN MODEL EX-GWF-ADVTIDAL  PACKAGE EX-GWF-ADVTIDAL CONNECTED TO MODEL EX-GWF-ADVTIDAL  PACKAGE RCH-ZONE_3       ON UNIT   1039 AT TIME STEP     14, STRESS PERIOD      2
 UBDSV06 SAVING              EVT IN MODEL EX-GWF-ADVTIDAL  PACKAGE EX-GWF-ADVTIDAL CONNECTED TO MODEL EX-GWF-ADVTIDAL  PACKAGE EVT              ON UNIT   1039 AT TIME STEP     14, STRESS PERIOD      2

 HEAD WILL BE SAVED ON UNIT 1040 AT END OF TIME STEP   14, STRESS PERIOD    2

end timestep


start timestep kper="2" kstp="15" mode="normal"

 UBDSV1 SAVING           STO-SS ON UNIT   1039 AT TIME STEP     15, STRESS PERIOD      2
 UBDSV1 SAVING           STO-SY ON UNIT   1039 AT TIME STEP     15, STRESS PERIOD      2
 UBDSV1 SAVING     FLOW-JA-FACE ON UNIT   1039 AT TIME STEP     15, STRESS PERIOD      2
 UBDSV06 SAVING       DATA-SPDIS IN MODEL EX-GWF-ADVTIDAL  PACKAGE NPF             CONNECTED TO MODEL EX-GWF-ADVTIDAL  PACKAGE NPF              ON UNIT   1039 AT TIME STEP     15, STRESS PERIOD      2
 UBDSV06 SAVING              WEL IN MODEL EX-GWF-ADVTIDAL  PACKAGE EX-GWF-ADVTIDAL CONNECTED TO MODEL EX-GWF-ADVTIDAL  PACKAGE WEL              ON UNIT   1039 AT TIME STEP     15, STRESS PERIOD      2
 UBDSV06 SAVING              RIV IN MODEL EX-GWF-ADVTIDAL  PACKAGE EX-GWF-ADVTIDAL CONNECTED TO MODEL EX-GWF-ADVTIDAL  PACKAGE RIV              ON UNIT   1039 AT TIME STEP     15, STRESS PERIOD      2
 UBDSV06 SAVING              GHB IN MODEL EX-GWF-ADVTIDAL  PACKAGE EX-GWF-ADVTIDAL CONNECTED TO MODEL EX-GWF-ADVTIDAL  PACKAGE GHB-TIDAL        ON UNIT   1039 AT TIME STEP     15, STRESS PERIOD      2
 UBDSV06 SAVING              RCH IN MODEL EX-GWF-ADVTIDAL  PACKAGE EX-GWF-ADVTIDAL CONNECTED TO MODEL EX-GWF-ADVTIDAL  PACKAGE RCH-ZONE_1       ON UNIT   1039 AT TIME STEP     15, STRESS PERIOD      2
 UBDSV06 SAVING              RCH IN MODEL EX-GWF-ADVTIDAL  PACKAGE EX-GWF-ADVTIDAL CONNECTED TO MODEL EX-GWF-ADVTIDAL  PACKAGE RCH-ZONE_2       ON UNIT   1039 AT TIME STEP     15, STRESS PERIOD      2
 UBDSV06 SAVING              RCH IN MODEL EX-GWF-ADVTIDAL  PACKAGE EX-GWF-ADVTIDAL CONNECTED TO MODEL EX-GWF-ADVTIDAL  PACKAGE RCH-ZONE_3       ON UNIT   1039 AT TIME STEP     15, STRESS PERIOD      2
 UBDSV06 SAVING              EVT IN MODEL EX-GWF-ADVTIDAL  PACKAGE EX-GWF-ADVTIDAL CONNECTED TO MODEL EX-GWF-ADVTIDAL  PACKAGE EVT              ON UNIT   1039 AT TIME STEP     15, STRESS PERIOD      2

 HEAD WILL BE SAVED ON UNIT 1040 AT END OF TIME STEP   15, STRESS PERIOD    2

end timestep


start timestep kper="2" kstp="16" mode="normal"

 UBDSV1 SAVING           STO-SS ON UNIT   1039 AT TIME STEP     16, STRESS PERIOD      2
 UBDSV1 SAVING           STO-SY ON UNIT   1039 AT TIME STEP     16, STRESS PERIOD      2
 UBDSV1 SAVING     FLOW-JA-FACE ON UNIT   1039 AT TIME STEP     16, STRESS PERIOD      2
 UBDSV06 SAVING       DATA-SPDIS IN MODEL EX-GWF-ADVTIDAL  PACKAGE NPF             CONNECTED TO MODEL EX-GWF-ADVTIDAL  PACKAGE NPF              ON UNIT   1039 AT TIME STEP     16, STRESS PERIOD      2
 UBDSV06 SAVING              WEL IN MODEL EX-GWF-ADVTIDAL  PACKAGE EX-GWF-ADVTIDAL CONNECTED TO MODEL EX-GWF-ADVTIDAL  PACKAGE WEL              ON UNIT   1039 AT TIME STEP     16, STRESS PERIOD      2
 UBDSV06 SAVING              RIV IN MODEL EX-GWF-ADVTIDAL  PACKAGE EX-GWF-ADVTIDAL CONNECTED TO MODEL EX-GWF-ADVTIDAL  PACKAGE RIV              ON UNIT   1039 AT TIME STEP     16, STRESS PERIOD      2
 UBDSV06 SAVING              GHB IN MODEL EX-GWF-ADVTIDAL  PACKAGE EX-GWF-ADVTIDAL CONNECTED TO MODEL EX-GWF-ADVTIDAL  PACKAGE GHB-TIDAL        ON UNIT   1039 AT TIME STEP     16, STRESS PERIOD      2
 UBDSV06 SAVING              RCH IN MODEL EX-GWF-ADVTIDAL  PACKAGE EX-GWF-ADVTIDAL CONNECTED TO MODEL EX-GWF-ADVTIDAL  PACKAGE RCH-ZONE_1       ON UNIT   1039 AT TIME STEP     16, STRESS PERIOD      2
 UBDSV06 SAVING              RCH IN MODEL EX-GWF-ADVTIDAL  PACKAGE EX-GWF-ADVTIDAL CONNECTED TO MODEL EX-GWF-ADVTIDAL  PACKAGE RCH-ZONE_2       ON UNIT   1039 AT TIME STEP     16, STRESS PERIOD      2
 UBDSV06 SAVING              RCH IN MODEL EX-GWF-ADVTIDAL  PACKAGE EX-GWF-ADVTIDAL CONNECTED TO MODEL EX-GWF-ADVTIDAL  PACKAGE RCH-ZONE_3       ON UNIT   1039 AT TIME STEP     16, STRESS PERIOD      2
 UBDSV06 SAVING              EVT IN MODEL EX-GWF-ADVTIDAL  PACKAGE EX-GWF-ADVTIDAL CONNECTED TO MODEL EX-GWF-ADVTIDAL  PACKAGE EVT              ON UNIT   1039 AT TIME STEP     16, STRESS PERIOD      2

 HEAD WILL BE SAVED ON UNIT 1040 AT END OF TIME STEP   16, STRESS PERIOD    2

end timestep


start timestep kper="2" kstp="17" mode="normal"

 UBDSV1 SAVING           STO-SS ON UNIT   1039 AT TIME STEP     17, STRESS PERIOD      2
[...]
 UBDSV06 SAVING              RCH IN MODEL EX-GWF-ADVTIDAL  PACKAGE EX-GWF-ADVTIDAL CONNECTED TO MODEL EX-GWF-ADVTIDAL  PACKAGE RCH-ZONE_1       ON UNIT   1039 AT TIME STEP    120, STRESS PERIOD      4
 UBDSV06 SAVING              RCH IN MODEL EX-GWF-ADVTIDAL  PACKAGE EX-GWF-ADVTIDAL CONNECTED TO MODEL EX-GWF-ADVTIDAL  PACKAGE RCH-ZONE_2       ON UNIT   1039 AT TIME STEP    120, STRESS PERIOD      4
 UBDSV06 SAVING              RCH IN MODEL EX-GWF-ADVTIDAL  PACKAGE EX-GWF-ADVTIDAL CONNECTED TO MODEL EX-GWF-ADVTIDAL  PACKAGE RCH-ZONE_3       ON UNIT   1039 AT TIME STEP    120, STRESS PERIOD      4
 UBDSV06 SAVING              EVT IN MODEL EX-GWF-ADVTIDAL  PACKAGE EX-GWF-ADVTIDAL CONNECTED TO MODEL EX-GWF-ADVTIDAL  PACKAGE EVT              ON UNIT   1039 AT TIME STEP    120, STRESS PERIOD      4

 RCH PACKAGE (RCH-ZONE_1) FLOW RATES   PERIOD      4   STEP      120
 ----------------------------------------------------------------------------------------
   NUMBER   CELLID                    RATE       NAME                                    
 ----------------------------------------------------------------------------------------
     1      (1,1,1)               625.00000                                              
     2      (1,1,2)               625.00000                                              
     3      (1,1,3)               312.50000                                              
     4      (1,2,1)               625.00000                                              
     5      (1,2,2)               625.00000                                              
     6      (1,2,3)               625.00000                                              
     7      (1,2,4)               312.50000                                              
     8      (1,3,1)               625.00000                                              
     9      (1,3,2)               625.00000                                              
     10     (1,3,3)               625.00000                                              
     11     (1,3,4)               625.00000                                              
     12     (1,3,5)               312.50000                                              
     13     (1,4,1)               625.00000                                              
     14     (1,4,2)               625.00000                                              
     15     (1,4,3)               625.00000                                              
     16     (1,4,4)               625.00000                                              
     17     (1,4,5)               625.00000                                              
     18     (1,4,6)               312.50000                                              
     19     (1,5,1)               625.00000                                              
     20     (1,5,2)               625.00000                                              
     21     (1,5,3)               625.00000                                              
     22     (1,5,4)               625.00000                                              
     23     (1,5,5)               625.00000                                              
     24     (1,5,6)               625.00000                                              
     25     (1,6,1)               625.00000                                              
     26     (1,6,2)               625.00000                                              
     27     (1,6,3)               625.00000                                              
     28     (1,6,4)               625.00000                                              
     29     (1,6,5)               625.00000                                              
     30     (1,6,6)               625.00000                                              
     31     (1,7,1)               625.00000                                              
     32     (1,7,2)               625.00000                                              
     33     (1,7,3)               625.00000                                              
     34     (1,7,4)               625.00000                                              
     35     (1,7,5)               625.00000                                              
     36     (1,7,6)               625.00000                                              
     37     (1,8,1)               625.00000                                              
     38     (1,8,2)               625.00000                                              
     39     (1,8,3)               625.00000                                              
     40     (1,8,4)               625.00000                                              
     41     (1,8,5)               625.00000                                              
     42     (1,8,6)               625.00000                                              
     43     (1,9,1)               625.00000                                              
     44     (1,9,2)               625.00000                                              
     45     (1,9,3)               625.00000                                              
     46     (1,9,4)               625.00000                                              
     47     (1,9,5)               625.00000                                              
     48     (1,9,6)               625.00000                                              
     49     (1,10,1)              625.00000                                              
     50     (1,10,2)              625.00000                                              
     51     (1,10,3)              625.00000                                              
     52     (1,10,4)              625.00000                                              
     53     (1,10,5)              625.00000                                              
     54     (1,10,6)              625.00000                                              
     55     (1,11,1)              625.00000                                              
     56     (1,11,2)              625.00000                                              
     57     (1,11,3)              625.00000                                              
     58     (1,11,4)              625.00000                                              
     59     (1,11,5)              625.00000                                              
     60     (1,11,6)              625.00000                                              
     61     (1,12,1)              625.00000                                              
     62     (1,12,2)              625.00000                                              
     63     (1,12,3)              625.00000                                              
     64     (1,12,4)              625.00000                                              
     65     (1,12,5)              625.00000                                              
     66     (1,12,6)              625.00000                                              
     67     (1,13,1)              625.00000                                              
     68     (1,13,2)              625.00000                                              
     69     (1,13,3)              625.00000                                              
     70     (1,13,4)              625.00000                                              
     71     (1,13,5)              625.00000                                              
     72     (1,13,6)              625.00000                                              
     73     (1,14,1)              625.00000                                              
     74     (1,14,2)              625.00000                                              
     75     (1,14,3)              625.00000                                              
     76     (1,14,4)              625.00000                                              
     77     (1,14,5)              625.00000                                              
     78     (1,14,6)              625.00000                                              
     79     (1,15,1)              625.00000                                              
     80     (1,15,2)              625.00000                                              
     81     (1,15,3)              625.00000                                              
     82     (1,15,4)              625.00000                                              
     83     (1,15,5)              625.00000                                              
     84     (1,15,6)              625.00000                                              
 ----------------------------------------------------------------------------------------




 RCH PACKAGE (RCH-ZONE_2) FLOW RATES   PERIOD      4   STEP      120
 ----------------------------------------------------------------------------------------
   NUMBER   CELLID                    RATE       NAME                                    
 ----------------------------------------------------------------------------------------
     1      (1,1,3)               200.00000                                              
     2      (1,1,4)               400.00000                                              
     3      (1,1,5)               400.00000                                              
     4      (1,1,6)               400.00000                                              
     5      (1,1,7)               400.00000                                              
     6      (1,1,8)               400.00000                                              
     7      (1,1,9)               400.00000                                              
     8      (1,1,10)              200.00000                                              
     9      (1,2,4)               200.00000                                              
     10     (1,2,5)               400.00000                                              
     11     (1,2,6)               400.00000                                              
     12     (1,2,7)               400.00000                                              
     13     (1,2,8)               400.00000                                              
     14     (1,2,9)               200.00000                                              
     15     (1,3,5)               200.00000                                              
     16     (1,3,6)               400.00000                                              
     17     (1,3,7)               400.00000                                              
     18     (1,3,8)               200.00000                                              
     19     (1,4,6)               200.00000                                              
     20     (1,4,7)               200.00000                                              
 ----------------------------------------------------------------------------------------




 RCH PACKAGE (RCH-ZONE_3) FLOW RATES   PERIOD      4   STEP      120
 ----------------------------------------------------------------------------------------
   NUMBER   CELLID                    RATE       NAME                                    
 ----------------------------------------------------------------------------------------
     1      (1,1,10)              225.00000                                              
     2      (1,2,9)               225.00000                                              
     3      (1,2,10)              450.00000                                              
     4      (1,3,8)               225.00000                                              
     5      (1,3,9)               450.00000                                              
     6      (1,3,10)              450.00000                                              
     7      (1,4,7)               225.00000                                              
     8      (1,4,8)               450.00000                                              
     9      (1,4,9)               450.00000                                              
     10     (1,4,10)              450.00000                                              
     11     (1,5,7)               450.00000                                              
     12     (1,5,8)               450.00000                                              
     13     (1,5,9)               450.00000                                              
     14     (1,5,10)              450.00000                                              
     15     (1,6,7)               450.00000                                              
     16     (1,6,8)               450.00000                                              
     17     (1,6,9)               450.00000                                              
     18     (1,6,10)              450.00000                                              
     19     (1,7,7)               450.00000                                              
     20     (1,7,8)               450.00000                                              
     21     (1,7,9)               450.00000                                              
     22     (1,7,10)              450.00000                                              
     23     (1,8,7)               450.00000                                              
     24     (1,8,8)               450.00000                                              
     25     (1,8,9)               450.00000                                              
     26     (1,8,10)              450.00000                                              
     27     (1,9,7)               450.00000                                              
     28     (1,9,8)               450.00000                                              
     29     (1,9,9)               450.00000                                              
     30     (1,9,10)              450.00000                                              
     31     (1,10,7)              450.00000                                              
     32     (1,10,8)              450.00000                                              
     33     (1,10,9)              450.00000                                              
     34     (1,10,10)             450.00000                                              
     35     (1,11,7)              450.00000                                              
     36     (1,11,8)              450.00000                                              
     37     (1,11,9)              450.00000                                              
     38     (1,11,10)             450.00000                                              
     39     (1,12,7)              450.00000                                              
     40     (1,12,8)              450.00000                                              
     41     (1,12,9)              450.00000                                              
     42     (1,12,10)             450.00000                                              
     43     (1,13,7)              450.00000                                              
     44     (1,13,8)              450.00000                                              
     45     (1,13,9)              450.00000                                              
     46     (1,13,10)             450.00000                                              
     47     (1,14,7)              450.00000                                              
     48     (1,14,8)              450.00000                                              
     49     (1,14,9)              450.00000                                              
     50     (1,14,10)             450.00000                                              
     51     (1,15,7)              450.00000                                              
     52     (1,15,8)              450.00000                                              
     53     (1,15,9)              450.00000                                              
     54     (1,15,10)             450.00000                                              
 ----------------------------------------------------------------------------------------




 HEAD WILL BE SAVED ON UNIT 1040 AT END OF TIME STEP  120, STRESS PERIOD    4


  VOLUME BUDGET FOR ENTIRE MODEL AT END OF TIME STEP  120, STRESS PERIOD   4
  ---------------------------------------------------------------------------------------------------

     CUMULATIVE VOLUME      L**3       RATES FOR THIS TIME STEP      L**3/T          PACKAGE NAME    
     ------------------                 ------------------------                     ----------------

           IN:                                      IN:
           ---                                      ---
              STO-SS =      136438.0189                STO-SS =          10.7687     STORAGE                          
              STO-SY =      182397.4547                STO-SY =        6424.1892     STORAGE                          
                 WEL =           0.0000                   WEL =           0.0000     WEL                              
                 RIV =      929004.1292                   RIV =       18699.1633     RIV                              
                 GHB =           0.0000                   GHB =           0.0000     GHB-TIDAL                        
                 RCH =     1055750.0000                   RCH =       51250.0000     RCH-ZONE_1                       
                 RCH =      218400.0000                   RCH =        6400.0000     RCH-ZONE_2                       
                 RCH =      737100.0000                   RCH =       23400.0000     RCH-ZONE_3                       
                 EVT =           0.0000                   EVT =           0.0000     EVT                              

            TOTAL IN =     3259089.6027              TOTAL IN =      106184.1213

          OUT:                                     OUT:
          ----                                     ----
              STO-SS =      137364.2498                STO-SS =       11404.8487     STORAGE                          
              STO-SY =      641573.7206                STO-SY =       23973.7320     STORAGE                          
                 WEL =       32200.0000                   WEL =         670.0000     WEL                              
                 RIV =      120735.7289                   RIV =        8577.0472     RIV                              
                 GHB =     2319223.3807                   GHB =       61295.9057     GHB-TIDAL                        
                 RCH =           0.0000                   RCH =           0.0000     RCH-ZONE_1                       
                 RCH =           0.0000                   RCH =           0.0000     RCH-ZONE_2                       
                 RCH =           0.0000                   RCH =           0.0000     RCH-ZONE_3                       
                 EVT =        7992.5228                   EVT =         262.5877     EVT                              

           TOTAL OUT =     3259089.6027             TOTAL OUT =      106184.1213

            IN - OUT =      -6.7656E-06              IN - OUT =      -8.0561E-07

 PERCENT DISCREPANCY =          -0.00     PERCENT DISCREPANCY =          -0.00




         TIME SUMMARY AT END OF TIME STEP  120 IN STRESS PERIOD    4
                    SECONDS     MINUTES      HOURS       DAYS        YEARS
                    -----------------------------------------------------------
   TIME STEP LENGTH  7200.0      120.00      2.0000     8.33333E-02 2.28154E-04
 STRESS PERIOD TIME 8.64000E+05  14400.      240.00      10.000     2.73785E-02
         TOTAL TIME 2.67840E+06  44640.      744.00      31.000     8.48734E-02


end timestep

