                                   MODFLOW 6
                U.S. GEOLOGICAL SURVEY MODULAR HYDROLOGIC MODEL
                          GROUNDWATER FLOW MODEL (GWF)
                            VERSION 6.6.0 12/20/2024

   MODFLOW 6 compiled Dec 31 2024 17:08:41 with Intel(R) Fortran Intel(R) 64
   Compiler Classic for applications running on Intel(R) 64, Version 2021.7.0
                             Build 20220726_000000

This software has been approved for release by the U.S. Geological 
Survey (USGS). Although the software has been subjected to rigorous 
review, the USGS reserves the right to update the software as needed 
pursuant to further analysis and review. No warranty, expressed or 
implied, is made by the USGS or the U.S. Government as to the 
functionality of the software and related material nor shall the 
fact of release constitute any such warranty. Furthermore, the 
software is released on condition that neither the USGS nor the U.S. 
Government shall be held liable for any damages resulting from its 
authorized or unauthorized use. Also refer to the USGS Water 
Resources Software User Rights Notice for complete use, copyright, 
and distribution information.


As a work of the United States Government, this USGS product is 
in the public domain within the United States. You can copy, 
modify, distribute, and perform the work, even for commercial 
purposes, all without asking permission. Additionally, USGS 
waives copyright and related rights in the work worldwide 
through CC0 1.0 Universal Public Domain Dedication 
(https://creativecommons.org/publicdomain/zero/1.0/).

The following GNU Lesser General Public License (LGPL) libraries
are used in this USGS product:

    SPARSKIT version 2.0
      ilut, luson, and qsplit 
      (https://www-users.cse.umn.edu/~saad/software/SPARSKIT/)

    RCM - Reverse Cuthill McKee Ordering
      (https://people.math.sc.edu/Burkardt/f_src/rcm/rcm.html)

    BLAS - Basic Linear Algebra Subprograms Level 1
      (https://people.math.sc.edu/Burkardt/f_src/blas1_d/blas1_d.html)

    SPARSEKIT - Sparse Matrix Utility Package
      amux, dperm, dvperm, rperm, and cperm
      (https://people.sc.fsu.edu/~jburkardt/f77_src/sparsekit/sparsekit.html)

The following BSD-3 License libraries are used in this USGS product:

    Modern Fortran DAG Library
      Copyright (c) 2018, Jacob Williams
      All rights reserved.
      (https://github.com/jacobwilliams/daglib)

MODFLOW 6 compiler options: -Ilinux/obj_mf6 -O2 -no-heap-arrays -fpe0
-traceback -Qdiag-disable:7416 -Qdiag-disable:7025 -Qdiag-disable:5268 -fpp
-module linux/mod_mf6/ -c -o linux/obj_mf6/compilerversion.o

System command used to initiate simulation:
/mnt/c/Users/saulm/Documents/GitHub/mf6Voronoi/examples/bin/mf6

MODFLOW was compiled using uniform precision.

Real Variables
  KIND: 8
  TINY (smallest non-zero value):    2.225074-308
  HUGE (largest value):    1.797693+308
  PRECISION: 15
  SIZE IN BITS: 64

Integer Variables
  KIND: 4
  HUGE (largest value): 2147483647
  SIZE IN BITS: 32

Long Integer Variables
  KIND: 8
  HUGE (largest value): 9223372036854775807
  SIZE IN BITS: 64

Logical Variables
  KIND: 4
  SIZE IN BITS: 32
 
 NAMEFILE OPTIONS:
    NEWTON-RAPHSON method enabled for the model.
    NEWTON-RAPHSON UNDER-RELAXATION based on the bottom elevation of the model will be applied to the model.
    FLOWS WILL BE SAVED TO BUDGET FILE SPECIFIED IN OUTPUT CONTROL
 END NAMEFILE OPTIONS:

 DISV -- VERTEX GRID DISCRETIZATION PACKAGE, VERSION 1 : 12/23/2015 - INPUT READ FROM MEMPATH: __INPUT__/MF6MODEL/DISV                           


 Setting Discretization Options
 End Setting Discretization Options

 Setting Discretization Dimensions
    NLAY = 15
    NCPL = 8871
    NVERT = 17791
 End Setting Discretization Dimensions

 Setting Discretization Griddata
    TOP set from input file
    BOTM set from input file
 End Setting Discretization Griddata

 Discretization Vertex data loaded
 Discretization Cell2d data loaded

 NPF -- NODE PROPERTY FLOW PACKAGE, VERSION 1, 3/30/2015 INPUT READ FROM MEMPATH: __INPUT__/MF6MODEL/NPF                            


 IC -- Initial Conditions Package, Version 8, 3/28/2015 input read from mempath: __INPUT__/MF6MODEL/IC                             


 Setting NPF Options
    Specific discharge will be calculated at cell centers and written to DATA-SPDIS in budget file when requested.
 End Setting NPF Options

 Setting NPF Griddata
    ICELLTYPE set from input file
    K set from input file
    K33 set from input file
    K22 not provided.  Setting K22 = K.
 End Setting NPF Griddata


 DRN   -- DRN PACKAGE, VERSION 8, 2/22/2014 INPUT READ FROM MEMPATH: __INPUT__/MF6MODEL/DRN_0                          

 PROCESSING DRN BASE OPTIONS
 END OF DRN BASE OPTIONS

 PROCESSING DRN OPTIONS
 END OF DRN OPTIONS

 PROCESSING DRN BASE DIMENSIONS
    MAXBOUND =    1725
 END OF DRN BASE DIMENSIONS

 RCH   -- RCH PACKAGE, VERSION 8, 2/22/2014 INPUT READ FROM MEMPATH: __INPUT__/MF6MODEL/RCHA_0                         

 PROCESSING RCH BASE OPTIONS
 END OF RCH BASE OPTIONS

 PROCESSING RCHA OPTIONS
    RECHARGE INPUT WILL BE READ AS ARRAY(S).
 END OF RCHA OPTIONS

 EVT   -- EVT PACKAGE, VERSION 8, 2/22/2014 INPUT READ FROM MEMPATH: __INPUT__/MF6MODEL/EVTA_0                         

 PROCESSING EVT BASE OPTIONS
 END OF EVT BASE OPTIONS

 PROCESSING EVTA OPTIONS
    EVAPOTRANSPIRATION INPUT WILL BE READ AS ARRAYS.
 END OF EVTA OPTIONS
    STRT set from input file

 STO -- STORAGE PACKAGE, VERSION 1, 5/19/2014 INPUT READ FROM MEMPATH: __INPUT__/MF6MODEL/STO                            


 PROCESSING STORAGE OPTIONS
 END OF STORAGE OPTIONS
    BINARY GRID INFORMATION WILL BE WRITTEN TO:
      UNIT NUMBER: 1016
      FILE NAME: mf6Model.disv.grb

 OPENED mf6Model.disv.grb
 FILE TYPE:DATA(BINARY)   UNIT 1016   STATUS:REPLACE             
 FORMAT:UNFORMATTED            ACCESS:STREAM              
 ACTION:READWRITE           

      THE LAST TIME STEP WILL BE PRINTED
      THE LAST TIME STEP WILL BE PRINTED
 # File generated by Flopy version 3.9.2 on 05/21/2025 at 13:09:50.

 PROCESSING OC OPTIONS

    HEAD INFORMATION WILL BE WRITTEN TO:
      UNIT NUMBER: 1017
      FILE NAME: mf6Model.hds

 OPENED mf6Model.hds
 FILE TYPE:DATA(BINARY)   UNIT 1017   STATUS:REPLACE             
 FORMAT:UNFORMATTED            ACCESS:STREAM              
 ACTION:READWRITE           

 END OF OC OPTIONS

start timestep kper="1" kstp="1" mode="normal"


 BEGIN READING OUTPUT CONTROL FOR STRESS PERIOD 1
      THE LAST TIME STEP WILL BE SAVED

 END READING OUTPUT CONTROL FOR STRESS PERIOD 1


 PROCESSING STORAGE PERIOD DATA
 END PROCESSING STORAGE PERIOD DATA


 STRESS PERIOD 1 IS STEADY-STATE


 HEAD WILL BE SAVED ON UNIT 1017 AT END OF TIME STEP    1, STRESS PERIOD    1


  VOLUME BUDGET FOR ENTIRE MODEL AT END OF TIME STEP    1, STRESS PERIOD   1
  ---------------------------------------------------------------------------------------------------

     CUMULATIVE VOLUME      L**3       RATES FOR THIS TIME STEP      L**3/T          PACKAGE NAME    
     ------------------                 ------------------------                     ----------------

           IN:                                      IN:
           ---                                      ---
              STO-SS =           0.0000                STO-SS =           0.0000     STORAGE                          
              STO-SY =           0.0000                STO-SY =           0.0000     STORAGE                          
                 DRN =           0.0000                   DRN =           0.0000     DRN_0                            
                RCHA =           0.5312                  RCHA =           0.5312     RCHA_0                           
                EVTA =           0.0000                  EVTA =           0.0000     EVTA_0                           

            TOTAL IN =           0.5312              TOTAL IN =           0.5312

          OUT:                                     OUT:
          ----                                     ----
              STO-SS =           0.0000                STO-SS =           0.0000     STORAGE                          
              STO-SY =           0.0000                STO-SY =           0.0000     STORAGE                          
                 DRN =           0.5199                   DRN =           0.5199     DRN_0                            
                RCHA =           0.0000                  RCHA =           0.0000     RCHA_0                           
                EVTA =       1.1338E-02                  EVTA =       1.1338E-02     EVTA_0                           

           TOTAL OUT =           0.5312             TOTAL OUT =           0.5312

            IN - OUT =      -4.4806E-06              IN - OUT =      -4.4806E-06

 PERCENT DISCREPANCY =          -0.00     PERCENT DISCREPANCY =          -0.00




         TIME SUMMARY AT END OF TIME STEP    1 IN STRESS PERIOD    1
                    SECONDS     MINUTES      HOURS       DAYS        YEARS
                    -----------------------------------------------------------
   TIME STEP LENGTH  1.0000     1.66667E-02 2.77778E-04 1.15741E-05 3.16881E-08
 STRESS PERIOD TIME  1.0000     1.66667E-02 2.77778E-04 1.15741E-05 3.16881E-08
         TOTAL TIME  1.0000     1.66667E-02 2.77778E-04 1.15741E-05 3.16881E-08


end timestep


start timestep kper="2" kstp="1" mode="normal"


 END OF FILE DETECTED IN OUTPUT CONTROL.
 CURRENT OUTPUT CONTROL SETTINGS WILL BE 
 REPEATED UNTIL THE END OF THE SIMULATION.

 OUTPUT CONTROL FOR STRESS PERIOD 2 IS REPEATED USING SETTINGS FROM A PREVIOUS STRESS PERIOD.


 PROCESSING STORAGE PERIOD DATA
 END PROCESSING STORAGE PERIOD DATA


 STRESS PERIOD 2 IS TRANSIENT


 HEAD WILL BE SAVED ON UNIT 1017 AT END OF TIME STEP    1, STRESS PERIOD    2


  VOLUME BUDGET FOR ENTIRE MODEL AT END OF TIME STEP    1, STRESS PERIOD   2
  ---------------------------------------------------------------------------------------------------

     CUMULATIVE VOLUME      L**3       RATES FOR THIS TIME STEP      L**3/T          PACKAGE NAME    
     ------------------                 ------------------------                     ----------------

           IN:                                      IN:
           ---                                      ---
              STO-SS =       21396.5739                STO-SS =       1.6962E-04     STORAGE                          
              STO-SY =       36966.3526                STO-SY =       2.9305E-04     STORAGE                          
                 DRN =           0.0000                   DRN =           0.0000     DRN_0                            
                RCHA =    67008853.0977                  RCHA =           0.5312     RCHA_0                           
                EVTA =           0.0000                  EVTA =           0.0000     EVTA_0                           

            TOTAL IN =    67067216.0242              TOTAL IN =           0.5317

          OUT:                                     OUT:
          ----                                     ----
              STO-SS =           0.0000                STO-SS =           0.0000     STORAGE                          
              STO-SY =           0.0000                STO-SY =           0.0000     STORAGE                          
                 DRN =    65657792.0453                   DRN =           0.5205     DRN_0                            
                RCHA =           0.0000                  RCHA =           0.0000     RCHA_0                           
                EVTA =     1409694.3447                  EVTA =       1.1175E-02     EVTA_0                           

           TOTAL OUT =    67067486.3900             TOTAL OUT =           0.5317

            IN - OUT =        -270.3657              IN - OUT =      -2.1433E-06

 PERCENT DISCREPANCY =          -0.00     PERCENT DISCREPANCY =          -0.00




         TIME SUMMARY AT END OF TIME STEP    1 IN STRESS PERIOD    2
                    SECONDS     MINUTES      HOURS       DAYS        YEARS
                    -----------------------------------------------------------
   TIME STEP LENGTH 1.26144E+08 2.10240E+06  35040.      1460.0      3.9973    
 STRESS PERIOD TIME 1.26144E+08 2.10240E+06  35040.      1460.0      3.9973    
         TOTAL TIME 1.26144E+08 2.10240E+06  35040.      1460.0      3.9973    


end timestep


start timestep kper="3" kstp="1" mode="normal"


 OUTPUT CONTROL FOR STRESS PERIOD 3 IS REPEATED USING SETTINGS FROM A PREVIOUS STRESS PERIOD.


 PROCESSING STORAGE PERIOD DATA
 END PROCESSING STORAGE PERIOD DATA


 STRESS PERIOD 3 IS TRANSIENT


 HEAD WILL BE SAVED ON UNIT 1017 AT END OF TIME STEP    1, STRESS PERIOD    3


  VOLUME BUDGET FOR ENTIRE MODEL AT END OF TIME STEP    1, STRESS PERIOD   3
  ---------------------------------------------------------------------------------------------------

     CUMULATIVE VOLUME      L**3       RATES FOR THIS TIME STEP      L**3/T          PACKAGE NAME    
     ------------------                 ------------------------                     ----------------

           IN:                                      IN:
           ---                                      ---
              STO-SS =      103065.1628                STO-SS =       6.4742E-04     STORAGE                          
              STO-SY =      177916.5014                STO-SY =       1.1174E-03     STORAGE                          
                 DRN =           0.0000                   DRN =           0.0000     DRN_0                            
                RCHA =   134017705.6641                  RCHA =           0.5312     RCHA_0                           
                EVTA =           0.0000                  EVTA =           0.0000     EVTA_0                           

            TOTAL IN =   134298687.3283              TOTAL IN =           0.5330

          OUT:                                     OUT:
          ----                                     ----
              STO-SS =           0.0000                STO-SS =           0.0000     STORAGE                          
              STO-SY =           0.0000                STO-SY =           0.0000     STORAGE                          
                 DRN =   131541928.2641                   DRN =           0.5223     DRN_0                            
                RCHA =           0.0000                  RCHA =           0.0000     RCHA_0                           
                EVTA =     2757058.0570                  EVTA =       1.0681E-02     EVTA_0                           

           TOTAL OUT =   134298986.3210             TOTAL OUT =           0.5330

            IN - OUT =        -298.9927              IN - OUT =      -2.2694E-07

 PERCENT DISCREPANCY =          -0.00     PERCENT DISCREPANCY =          -0.00




         TIME SUMMARY AT END OF TIME STEP    1 IN STRESS PERIOD    3
                    SECONDS     MINUTES      HOURS       DAYS        YEARS
                    -----------------------------------------------------------
   TIME STEP LENGTH 1.26144E+08 2.10240E+06  35040.      1460.0      3.9973    
 STRESS PERIOD TIME 1.26144E+08 2.10240E+06  35040.      1460.0      3.9973    
         TOTAL TIME 2.52288E+08 4.20480E+06  70080.      2920.0      7.9945    


end timestep


start timestep kper="4" kstp="1" mode="normal"


 OUTPUT CONTROL FOR STRESS PERIOD 4 IS REPEATED USING SETTINGS FROM A PREVIOUS STRESS PERIOD.


 PROCESSING STORAGE PERIOD DATA
 END PROCESSING STORAGE PERIOD DATA


 STRESS PERIOD 4 IS TRANSIENT


 HEAD WILL BE SAVED ON UNIT 1017 AT END OF TIME STEP    1, STRESS PERIOD    4


  VOLUME BUDGET FOR ENTIRE MODEL AT END OF TIME STEP    1, STRESS PERIOD   4
  ---------------------------------------------------------------------------------------------------

     CUMULATIVE VOLUME      L**3       RATES FOR THIS TIME STEP      L**3/T          PACKAGE NAME    
     ------------------                 ------------------------                     ----------------

           IN:                                      IN:
           ---                                      ---
              STO-SS =      187893.7386                STO-SS =       6.7247E-04     STORAGE                          
              STO-SY =      327024.9941                STO-SY =       1.1820E-03     STORAGE                          
                 DRN =           0.0000                   DRN =           0.0000     DRN_0                            
                RCHA =   201026558.2306                  RCHA =           0.5312     RCHA_0                           
                EVTA =           0.0000                  EVTA =           0.0000     EVTA_0                           

            TOTAL IN =   201541476.9633              TOTAL IN =           0.5331

          OUT:                                     OUT:
          ----                                     ----
              STO-SS =           0.0000                STO-SS =           0.0000     STORAGE                          
              STO-SY =           0.0000                STO-SY =           0.0000     STORAGE                          
                 DRN =   197504339.3751                   DRN =           0.5229     DRN_0                            
                RCHA =           0.0000                  RCHA =           0.0000     RCHA_0                           
                EVTA =     4037051.9226                  EVTA =       1.0147E-02     EVTA_0                           

           TOTAL OUT =   201541391.2977             TOTAL OUT =           0.5331

            IN - OUT =          85.6656              IN - OUT =       3.0494E-06

 PERCENT DISCREPANCY =           0.00     PERCENT DISCREPANCY =           0.00




         TIME SUMMARY AT END OF TIME STEP    1 IN STRESS PERIOD    4
                    SECONDS     MINUTES      HOURS       DAYS        YEARS
                    -----------------------------------------------------------
   TIME STEP LENGTH 1.26144E+08 2.10240E+06  35040.      1460.0      3.9973    
 STRESS PERIOD TIME 1.26144E+08 2.10240E+06  35040.      1460.0      3.9973    
         TOTAL TIME 3.78432E+08 6.30720E+06 1.05120E+05  4380.0      11.992    


end timestep


start timestep kper="5" kstp="1" mode="normal"


 OUTPUT CONTROL FOR STRESS PERIOD 5 IS REPEATED USING SETTINGS FROM A PREVIOUS STRESS PERIOD.


 PROCESSING STORAGE PERIOD DATA
 END PROCESSING STORAGE PERIOD DATA


 STRESS PERIOD 5 IS TRANSIENT


 HEAD WILL BE SAVED ON UNIT 1017 AT END OF TIME STEP    1, STRESS PERIOD    5


  VOLUME BUDGET FOR ENTIRE MODEL AT END OF TIME STEP    1, STRESS PERIOD   5
  ---------------------------------------------------------------------------------------------------

     CUMULATIVE VOLUME      L**3       RATES FOR THIS TIME STEP      L**3/T          PACKAGE NAME    
     ------------------                 ------------------------                     ----------------

           IN:                                      IN:
           ---                                      ---
              STO-SS =      266414.9478                STO-SS =       6.2247E-04     STORAGE                          
              STO-SY =      467796.7048                STO-SY =       1.1160E-03     STORAGE                          
                 DRN =           0.0000                   DRN =           0.0000     DRN_0                            
                RCHA =   268035410.7970                  RCHA =           0.5312     RCHA_0                           
                EVTA =           0.0000                  EVTA =           0.0000     EVTA_0                           

            TOTAL IN =   268769622.4496              TOTAL IN =           0.5329

          OUT:                                     OUT:
          ----                                     ----
              STO-SS =           0.0000                STO-SS =           0.0000     STORAGE                          
              STO-SY =           0.0000                STO-SY =           0.0000     STORAGE                          
                 DRN =   263511246.8683                   DRN =           0.5233     DRN_0                            
                RCHA =           0.0000                  RCHA =           0.0000     RCHA_0                           
                EVTA =     5258187.4561                  EVTA =       9.6805E-03     EVTA_0                           

           TOTAL OUT =   268769434.3244             TOTAL OUT =           0.5329

            IN - OUT =         188.1252              IN - OUT =       8.1224E-07

 PERCENT DISCREPANCY =           0.00     PERCENT DISCREPANCY =           0.00




         TIME SUMMARY AT END OF TIME STEP    1 IN STRESS PERIOD    5
                    SECONDS     MINUTES      HOURS       DAYS        YEARS
                    -----------------------------------------------------------
   TIME STEP LENGTH 1.26144E+08 2.10240E+06  35040.      1460.0      3.9973    
 STRESS PERIOD TIME 1.26144E+08 2.10240E+06  35040.      1460.0      3.9973    
         TOTAL TIME 5.04576E+08 8.40960E+06 1.40160E+05  5840.0      15.989    


end timestep


start timestep kper="6" kstp="1" mode="normal"


 OUTPUT CONTROL FOR STRESS PERIOD 6 IS REPEATED USING SETTINGS FROM A PREVIOUS STRESS PERIOD.


 PROCESSING STORAGE PERIOD DATA
 END PROCESSING STORAGE PERIOD DATA


 STRESS PERIOD 6 IS TRANSIENT


 HEAD WILL BE SAVED ON UNIT 1017 AT END OF TIME STEP    1, STRESS PERIOD    6


  VOLUME BUDGET FOR ENTIRE MODEL AT END OF TIME STEP    1, STRESS PERIOD   6
  ---------------------------------------------------------------------------------------------------

     CUMULATIVE VOLUME      L**3       RATES FOR THIS TIME STEP      L**3/T          PACKAGE NAME    
     ------------------                 ------------------------                     ----------------

           IN:                                      IN:
           ---                                      ---
              STO-SS =      337228.6474                STO-SS =       5.6137E-04     STORAGE                          
              STO-SY =      596049.3961                STO-SY =       1.0167E-03     STORAGE                          
                 DRN =           0.0000                   DRN =           0.0000     DRN_0                            
                RCHA =   335044263.3635                  RCHA =           0.5312     RCHA_0                           
                EVTA =           0.0000                  EVTA =           0.0000     EVTA_0                           

            TOTAL IN =   335977541.4070              TOTAL IN =           0.5328

          OUT:                                     OUT:
          ----                                     ----
              STO-SS =           0.0000                STO-SS =           0.0000     STORAGE                          
              STO-SY =           0.0000                STO-SY =           0.0000     STORAGE                          
                 DRN =   329549575.2874                   DRN =           0.5235     DRN_0                            
                RCHA =           0.0000                  RCHA =           0.0000     RCHA_0                           
                EVTA =     6427967.7973                  EVTA =       9.2734E-03     EVTA_0                           

           TOTAL OUT =   335977543.0847             TOTAL OUT =           0.5328

            IN - OUT =          -1.6777              IN - OUT =      -1.5047E-06

 PERCENT DISCREPANCY =          -0.00     PERCENT DISCREPANCY =          -0.00




         TIME SUMMARY AT END OF TIME STEP    1 IN STRESS PERIOD    6
                    SECONDS     MINUTES      HOURS       DAYS        YEARS
                    -----------------------------------------------------------
   TIME STEP LENGTH 1.26144E+08 2.10240E+06  35040.      1460.0      3.9973    
 STRESS PERIOD TIME 1.26144E+08 2.10240E+06  35040.      1460.0      3.9973    
         TOTAL TIME 6.30720E+08 1.05120E+07 1.75200E+05  7300.0      19.986    


end timestep

