                                   MODFLOW 6
                U.S. GEOLOGICAL SURVEY MODULAR HYDROLOGIC MODEL
                          GROUNDWATER FLOW MODEL (GWF)
                            VERSION 6.6.0 12/19/2024

   MODFLOW 6 compiled Dec 19 2024 21:59:25 with Intel(R) Fortran Intel(R) 64
   Compiler Classic for applications running on Intel(R) 64, Version 2021.7.0
                             Build 20220726_000000

This software has been approved for release by the U.S. Geological 
Survey (USGS). Although the software has been subjected to rigorous 
review, the USGS reserves the right to update the software as needed 
pursuant to further analysis and review. No warranty, expressed or 
implied, is made by the USGS or the U.S. Government as to the 
functionality of the software and related material nor shall the 
fact of release constitute any such warranty. Furthermore, the 
software is released on condition that neither the USGS nor the U.S. 
Government shall be held liable for any damages resulting from its 
authorized or unauthorized use. Also refer to the USGS Water 
Resources Software User Rights Notice for complete use, copyright, 
and distribution information.


As a work of the United States Government, this USGS product is 
in the public domain within the United States. You can copy, 
modify, distribute, and perform the work, even for commercial 
purposes, all without asking permission. Additionally, USGS 
waives copyright and related rights in the work worldwide 
through CC0 1.0 Universal Public Domain Dedication 
(https://creativecommons.org/publicdomain/zero/1.0/).

The following GNU Lesser General Public License (LGPL) libraries
are used in this USGS product:

    SPARSKIT version 2.0
      ilut, luson, and qsplit 
      (https://www-users.cse.umn.edu/~saad/software/SPARSKIT/)

    RCM - Reverse Cuthill McKee Ordering
      (https://people.math.sc.edu/Burkardt/f_src/rcm/rcm.html)

    BLAS - Basic Linear Algebra Subprograms Level 1
      (https://people.math.sc.edu/Burkardt/f_src/blas1_d/blas1_d.html)

    SPARSEKIT - Sparse Matrix Utility Package
      amux, dperm, dvperm, rperm, and cperm
      (https://people.sc.fsu.edu/~jburkardt/f77_src/sparsekit/sparsekit.html)

The following BSD-3 License libraries are used in this USGS product:

    Modern Fortran DAG Library
      Copyright (c) 2018, Jacob Williams
      All rights reserved.
      (https://github.com/jacobwilliams/daglib)

MODFLOW 6 compiler options: /Isrc\libmf6core.a.p /Isrc /I..\src
/Isrc\libmf6_external.a.p /MTd /nologo /warn:general /warn:truncated_source
/stand:f08 /Zi /traceback /O2 /fpe:0 /heap-arrays:0 /traceback /fpp
/Qdiag-disable:7416 /Qdiag-disable:7025 /Qdiag-disable:5268
/Qdiag-disable:10448 /Fdsrc\libmf6core.a.p\Utilities_compilerversion.F90.pdb
/module:src\libmf6core.a.p
/Fosrc/libmf6core.a.p/Utilities_compilerversion.F90.obj /c

System command used to initiate simulation:
C:\WRDAPP\mf6.6.0_win64\bin\mf6.exe

MODFLOW was compiled using uniform precision.

Real Variables
  KIND: 8
  TINY (smallest non-zero value):    2.225074-308
  HUGE (largest value):    1.797693+308
  PRECISION: 15
  SIZE IN BITS: 64

Integer Variables
  KIND: 4
  HUGE (largest value): 2147483647
  SIZE IN BITS: 32

Long Integer Variables
  KIND: 8
  HUGE (largest value): 9223372036854775807
  SIZE IN BITS: 64

Logical Variables
  KIND: 4
  SIZE IN BITS: 32
 
 NAMEFILE OPTIONS:
    NEWTON-RAPHSON method enabled for the model.
    NEWTON-RAPHSON UNDER-RELAXATION based on the bottom elevation of the model will be applied to the model.
    STRESS PACKAGE INPUT WILL BE PRINTED FOR ALL MODEL STRESS PACKAGES
    FLOWS WILL BE SAVED TO BUDGET FILE SPECIFIED IN OUTPUT CONTROL
 END NAMEFILE OPTIONS:

 DIS -- STRUCTURED GRID DISCRETIZATION PACKAGE, VERSION 2 : 3/27/2014 - INPUT READ FROM MEMPATH: __INPUT__/MODFLOW/DIS                             


 NPF -- NODE PROPERTY FLOW PACKAGE, VERSION 1, 3/30/2015 INPUT READ FROM MEMPATH: __INPUT__/MODFLOW/NPF                             


 IC -- Initial Conditions Package, Version 8, 3/28/2015 input read from mempath: __INPUT__/MODFLOW/IC                              


 Setting Discretization Options
    Model length unit [0=UND, 1=FEET, 2=METERS, 3=CENTIMETERS] set as 2
    XORIGIN = 546753.6480752000
    YORIGIN = 5296330.001099000
    ANGROT = -19.00000000000000
 End Setting Discretization Options

 Setting Discretization Dimensions
    NLAY = 10
    NROW = 174
    NCOL = 54
 End Setting Discretization Dimensions

 Setting Discretization Griddata
    DELR set from input file
    DELC set from input file
    TOP set from input file
    BOTM set from input file
    IDOMAIN set from input file
 End Setting Discretization Griddata


 The specified IDOMAIN results in a reduced number of cells.
 Number of user nodes: 93960
 Number of nodes in solution: 56467


 Setting NPF Options
    Cell-by-cell flow information will be saved to binary file whenever ICBCFL is not zero.
    Specific discharge will be calculated at cell centers and written to DATA-SPDIS in budget file when requested.
    Saturation will be written to DATA-SAT in budget file when requested.
 End Setting NPF Options

 Setting NPF Griddata
    ICELLTYPE set from input file
    K set from input file
    K33 set from input file
    K22 set from input file
    ANGLE1 set from input file
    ANGLE2 set from input file
    ANGLE3 set from input file
 End Setting NPF Griddata


 DRN   -- DRN PACKAGE, VERSION 8, 2/22/2014 INPUT READ FROM MEMPATH: __INPUT__/MODFLOW/DRN-1                           

 PROCESSING DRN BASE OPTIONS
    FLOWS WILL BE SAVED TO BUDGET FILE SPECIFIED IN OUTPUT CONTROL
    LISTS OF DRN CELLS WILL BE PRINTED.
    DRN BOUNDARIES HAVE NAMES IN LAST COLUMN.
 END OF DRN BASE OPTIONS

 PROCESSING DRN OPTIONS
 END OF DRN OPTIONS

 PROCESSING DRN BASE DIMENSIONS
    MAXBOUND =     940
 END OF DRN BASE DIMENSIONS

 GHB   -- GHB PACKAGE, VERSION 8, 2/22/2014 INPUT READ FROM MEMPATH: __INPUT__/MODFLOW/GHB-1                           

 PROCESSING GHB BASE OPTIONS
    FLOWS WILL BE SAVED TO BUDGET FILE SPECIFIED IN OUTPUT CONTROL
    LISTS OF GHB CELLS WILL BE PRINTED.
    GHB BOUNDARIES HAVE NAMES IN LAST COLUMN.
 END OF GHB BASE OPTIONS

 PROCESSING GHB OPTIONS
 END OF GHB OPTIONS

 PROCESSING GHB BASE DIMENSIONS
    MAXBOUND =    1389
 END OF GHB BASE DIMENSIONS

 RCH   -- RCH PACKAGE, VERSION 8, 2/22/2014 INPUT READ FROM MEMPATH: __INPUT__/MODFLOW/RCH-1                           

 PROCESSING RCH BASE OPTIONS
    FLOWS WILL BE SAVED TO BUDGET FILE SPECIFIED IN OUTPUT CONTROL
    LISTS OF RCH CELLS WILL BE PRINTED.
    RCH BOUNDARIES HAVE NAMES IN LAST COLUMN.
 END OF RCH BASE OPTIONS

 PROCESSING RCH OPTIONS
 END OF RCH OPTIONS

 PROCESSING RCH BASE DIMENSIONS
    MAXBOUND =    7375
 END OF RCH BASE DIMENSIONS

 EVT   -- EVT PACKAGE, VERSION 8, 2/22/2014 INPUT READ FROM MEMPATH: __INPUT__/MODFLOW/EVT-1                           

 PROCESSING EVT BASE OPTIONS
    FLOWS WILL BE SAVED TO BUDGET FILE SPECIFIED IN OUTPUT CONTROL
    LISTS OF EVT CELLS WILL BE PRINTED.
    EVT BOUNDARIES HAVE NAMES IN LAST COLUMN.
 END OF EVT BASE OPTIONS

 PROCESSING EVT OPTIONS
    EVAPOTRANSPIRATION WILL BE APPLIED TO SPECIFIED CELL.
 END OF EVT OPTIONS

 PROCESSING EVT BASE DIMENSIONS
    MAXBOUND =    5402
 END OF EVT BASE DIMENSIONS

 PROCESSING EVT DIMENSIONS
    NSEG = 1
 END OF EVT DIMENSIONS
    STRT set from input file

The observation utility is active for "MODFLOW"
 # OBS: Observation Utility file created on 5/22/2025 by ModelMuse version 5.3.1.0.

Processing observation options:

Text output number of digits of precision set to: 10
The PRINT_INPUT option has been specified.


 OBSERVATIONS READ FROM FILE "HillslopeModel_v1.ob_gw"
 ----------------------------------------------------------------------------------------------------------------------------------------------------------------------------------------------------------------------------
 NAME                                     TYPE                                       TIME         LOCATION DATA                              OUTPUT FILENAME                                                                 
 ----------------------------------------------------------------------------------------------------------------------------------------------------------------------------------------------------------------------------
 HD_OBS_474820122185601                   CONTINUOUS  HEAD                           ALL TIMES    "     7   164    42"                       HillslopeModel_v1.ob_gw_out_head.csv                                            
 HD_OBS_474851122165301                   CONTINUOUS  HEAD                           ALL TIMES    "     4   158    50"                       HillslopeModel_v1.ob_gw_out_head.csv                                            
 HD_OBS_474907122194901                   CONTINUOUS  HEAD                           ALL TIMES    "     6   166    31"                       HillslopeModel_v1.ob_gw_out_head.csv                                            
 HD_OBS_474909122164401                   CONTINUOUS  HEAD                           ALL TIMES    "     5   152    50"                       HillslopeModel_v1.ob_gw_out_head.csv                                            
 HD_OBS_474923122195601                   CONTINUOUS  HEAD                           ALL TIMES    "     6   162    29"                       HillslopeModel_v1.ob_gw_out_head.csv                                            
 HD_OBS_474953122170201                   CONTINUOUS  HEAD                           ALL TIMES    "     5   141    46"                       HillslopeModel_v1.ob_gw_out_head.csv                                            
 HD_OBS_475016122172301                   CONTINUOUS  HEAD                           ALL TIMES    "     4   136    43"                       HillslopeModel_v1.ob_gw_out_head.csv                                            
 HD_OBS_475044122155601                   CONTINUOUS  HEAD                           ALL TIMES    "     6   121    50"                       HillslopeModel_v1.ob_gw_out_head.csv                                            
 HD_OBS_475104122191901                   CONTINUOUS  HEAD                           ALL TIMES    "     6   130    25"                       HillslopeModel_v1.ob_gw_out_head.csv                                            
 HD_OBS_475106122170101                   CONTINUOUS  HEAD                           ALL TIMES    "     4   120    42"                       HillslopeModel_v1.ob_gw_out_head.csv                                            
 HD_OBS_475106122172201                   CONTINUOUS  HEAD                           ALL TIMES    "     4   121    40"                       HillslopeModel_v1.ob_gw_out_head.csv                                            
 HD_OBS_475120122162401                   CONTINUOUS  HEAD                           ALL TIMES    "     4   113    45"                       HillslopeModel_v1.ob_gw_out_head.csv                                            
 HD_OBS_475150122192101                   CONTINUOUS  HEAD                           ALL TIMES    "     7   116    20"                       HillslopeModel_v1.ob_gw_out_head.csv                                            
 HD_OBS_475258122164201                   CONTINUOUS  HEAD                           ALL TIMES    "     2    85    38"                       HillslopeModel_v1.ob_gw_out_head.csv                                            
 HD_OBS_475300122164401                   CONTINUOUS  HEAD                           ALL TIMES    "     2    85    38"                       HillslopeModel_v1.ob_gw_out_head.csv                                            
 HD_OBS_475307122153701                   CONTINUOUS  HEAD                           ALL TIMES    "     3    79    44"                       HillslopeModel_v1.ob_gw_out_head.csv                                            
 HD_OBS_475309122153601                   CONTINUOUS  HEAD                           ALL TIMES    "     3    78    44"                       HillslopeModel_v1.ob_gw_out_head.csv                                            
 HD_OBS_475328122181901                   CONTINUOUS  HEAD                           ALL TIMES    "     9    84    22"                       HillslopeModel_v1.ob_gw_out_head.csv                                            
 HD_OBS_475334122180401                   CONTINUOUS  HEAD                           ALL TIMES    "     9    81    25"                       HillslopeModel_v1.ob_gw_out_head.csv                                            
 HD_OBS_475349122162901                   CONTINUOUS  HEAD                           ALL TIMES    "     2    70    37"                       HillslopeModel_v1.ob_gw_out_head.csv                                            
 HD_OBS_475407122144101                   CONTINUOUS  HEAD                           ALL TIMES    "     2    57    47"                       HillslopeModel_v1.ob_gw_out_head.csv                                            
 HD_OBS_475453122170701                   CONTINUOUS  HEAD                           ALL TIMES    "     2    54    28"                       HillslopeModel_v1.ob_gw_out_head.csv                                            
 HD_OBS_475518122162201                   CONTINUOUS  HEAD                           ALL TIMES    "     2    44    33"                       HillslopeModel_v1.ob_gw_out_head.csv                                            
 HD_OBS_475541122151101                   CONTINUOUS  HEAD                           ALL TIMES    "     4    32    39"                       HillslopeModel_v1.ob_gw_out_head.csv                                            
 ----------------------------------------------------------------------------------------------------------------------------------------------------------------------------------------------------------------------------


    BINARY GRID INFORMATION WILL BE WRITTEN TO:
      UNIT NUMBER: 1018
      FILE NAME: HillslopeModel_v1.dis.grb

 OPENED HillslopeModel_v1.dis.grb
 FILE TYPE:DATA(BINARY)   UNIT 1018   STATUS:REPLACE             
 FORMAT:UNFORMATTED            ACCESS:STREAM              
 ACTION:READWRITE           

      THE LAST TIME STEP WILL BE PRINTED
      THE LAST TIME STEP WILL BE PRINTED
 # Output Control file created on 5/22/2025 by ModelMuse version 5.3.1.0.

 PROCESSING OC OPTIONS

    BUDGET INFORMATION WILL BE WRITTEN TO:
      UNIT NUMBER: 1019
      FILE NAME: HillslopeModel_v1.cbc

 OPENED HillslopeModel_v1.cbc
 FILE TYPE:DATA(BINARY)   UNIT 1019   STATUS:REPLACE             
 FORMAT:UNFORMATTED            ACCESS:STREAM              
 ACTION:READWRITE           

    HEAD INFORMATION WILL BE WRITTEN TO:
      UNIT NUMBER: 1020
      FILE NAME: HillslopeModel_v1.bhd

 OPENED HillslopeModel_v1.bhd
 FILE TYPE:DATA(BINARY)   UNIT 1020   STATUS:REPLACE             
 FORMAT:UNFORMATTED            ACCESS:STREAM              
 ACTION:READWRITE           

 END OF OC OPTIONS

start timestep kper="1" kstp="1" mode="normal"


 BEGIN READING OUTPUT CONTROL FOR STRESS PERIOD 1
      ALL TIME STEPS WILL BE SAVED
      ALL TIME STEPS WILL BE PRINTED
      ALL TIME STEPS WILL BE SAVED

 END READING OUTPUT CONTROL FOR STRESS PERIOD 1
 -------------------------------------------------------------------------------------------------------------
  DRN NO.    LAYER    ROW     COL   BOUNDNAME                                     IFACE             DDRN      
 -------------------------------------------------------------------------------------------------------------
     1         2      79      32    STREAMS_AOI_DRN_V1A_1                     0.00000000       0.00000000     
     2         3      21       2    STREAMS_AOI_DRN_V1A_1                     0.00000000       0.00000000     
     3         3      144      5    STREAMS_AOI_DRN_V1A_1                     0.00000000       0.00000000     
     4         1      86      37    STREAMS_AOI_DRN_V1A_1                     0.00000000       0.00000000     
     5         1      85      23    STREAMS_AOI_DRN_V1A_1                     0.00000000       0.00000000     
     6         1      86       3    STREAMS_AOI_DRN_V1A_1                     0.00000000       0.00000000     
     7         4      14      10    STREAMS_AOI_DRN_V1A_1                     0.00000000       0.00000000     
     8         4      14       9    STREAMS_AOI_DRN_V1A_1                     0.00000000       0.00000000     
     9         3      62      45    STREAMS_AOI_DRN_V1A_1                     0.00000000       0.00000000     
     10        1      102      4    STREAMS_AOI_DRN_V1A_1                     0.00000000       0.00000000     
     11        1      102     16    STREAMS_AOI_DRN_V1A_1                     0.00000000       0.00000000     
     12        1      102     15    STREAMS_AOI_DRN_V1A_1                     0.00000000       0.00000000     
     13        1      87       2    STREAMS_AOI_DRN_V1A_1                     0.00000000       0.00000000     
     14        1      87       3    STREAMS_AOI_DRN_V1A_1                     0.00000000       0.00000000     
     15        1      165      5    STREAMS_AOI_DRN_V1A_1                     0.00000000       0.00000000     
     16        1      165     47    STREAMS_AOI_DRN_V1A_1                     0.00000000       0.00000000     
     17        2      100     34    STREAMS_AOI_DRN_V1A_1                     0.00000000       0.00000000     
     18        3      46       6    STREAMS_AOI_DRN_V1A_1                     0.00000000       0.00000000     
     19        3      170     48    STREAMS_AOI_DRN_V1A_1                     0.00000000       0.00000000     
     20        3      170     47    STREAMS_AOI_DRN_V1A_1                     0.00000000       0.00000000     
     21        3      170      5    STREAMS_AOI_DRN_V1A_1                     0.00000000       0.00000000     
     22        3      170     46    STREAMS_AOI_DRN_V1A_1                     0.00000000       0.00000000     
     23        4      138     15    STREAMS_AOI_DRN_V1A_1                     0.00000000       0.00000000     
     24        3      171     34    STREAMS_AOI_DRN_V1A_1                     0.00000000       0.00000000     
     25        4      139     11    STREAMS_AOI_DRN_V1A_1                     0.00000000       0.00000000     
     26        4      140      9    STREAMS_AOI_DRN_V1A_1                     0.00000000       0.00000000     
     27        1      79      19    STREAMS_AOI_DRN_V1A_1                     0.00000000       0.00000000     
     28        1      79      18    STREAMS_AOI_DRN_V1A_1                     0.00000000       0.00000000     
     29        1      70      53    STREAMS_AOI_DRN_V1A_1                     0.00000000       0.00000000     
     30        1      70      52    STREAMS_AOI_DRN_V1A_1                     0.00000000       0.00000000     
     31        1      145     50    STREAMS_AOI_DRN_V1A_1                     0.00000000       0.00000000     
     32        2      78       9    STREAMS_AOI_DRN_V1A_1                     0.00000000       0.00000000     
     33        1      146     31    STREAMS_AOI_DRN_V1A_1                     0.00000000       0.00000000     
     34        2      78      47    STREAMS_AOI_DRN_V1A_1                     0.00000000       0.00000000     
     35        2      78      46    STREAMS_AOI_DRN_V1A_1                     0.00000000       0.00000000     
     36        2      78       6    STREAMS_AOI_DRN_V1A_1                     0.00000000       0.00000000     
     37        3      144      7    STREAMS_AOI_DRN_V1A_1                     0.00000000       0.00000000     
     38        1       7      30    STREAMS_AOI_DRN_V1A_1                     0.00000000       0.00000000     
     39        1       7      29    STREAMS_AOI_DRN_V1A_1                     0.00000000       0.00000000     
     40        1      47       5    STREAMS_AOI_DRN_V1A_1                     0.00000000       0.00000000     
     41        1      47       4    STREAMS_AOI_DRN_V1A_1                     0.00000000       0.00000000     
     42        1      119     17    STREAMS_AOI_DRN_V1A_1                     0.00000000       0.00000000     
     43        1      119     16    STREAMS_AOI_DRN_V1A_1                     0.00000000       0.00000000     
     44        4      62      15    STREAMS_AOI_DRN_V1A_1                     0.00000000       0.00000000     
     45        1      93      39    STREAMS_AOI_DRN_V1A_1                     0.00000000       0.00000000     
     46        1      93      38    STREAMS_AOI_DRN_V1A_1                     0.00000000       0.00000000     
     47        1      93      37    STREAMS_AOI_DRN_V1A_1                     0.00000000       0.00000000     
     48        1      94      11    STREAMS_AOI_DRN_V1A_1                     0.00000000       0.00000000     
     49        1      94      10    STREAMS_AOI_DRN_V1A_1                     0.00000000       0.00000000     
     50        1      174     28    STREAMS_AOI_DRN_V1A_1                     0.00000000       0.00000000     
     51        2       1      12    STREAMS_AOI_DRN_V1A_1                     0.00000000       0.00000000     
     52        2       1      50    STREAMS_AOI_DRN_V1A_1                     0.00000000       0.00000000     
     53        2      42      42    STREAMS_AOI_DRN_V1A_1                     0.00000000       0.00000000     
     54        2      42      19    STREAMS_AOI_DRN_V1A_1                     0.00000000       0.00000000     
     55        2      157      7    STREAMS_AOI_DRN_V1A_1                     0.00000000       0.00000000     
     56        2      156     35    STREAMS_AOI_DRN_V1A_1                     0.00000000       0.00000000     
     57        1       6      25    STREAMS_AOI_DRN_V1A_1                     0.00000000       0.00000000     
     58        1      45       5    STREAMS_AOI_DRN_V1A_1                     0.00000000       0.00000000     
     59        1      44      33    STREAMS_AOI_DRN_V1A_1                     0.00000000       0.00000000     
     60        1      43      40    STREAMS_AOI_DRN_V1A_1                     0.00000000       0.00000000     
     61        1      114     27    STREAMS_AOI_DRN_V1A_1                     0.00000000       0.00000000     
     62        2      44      35    STREAMS_AOI_DRN_V1A_1                     0.00000000       0.00000000     
     63        1      114     51    STREAMS_AOI_DRN_V1A_1                     0.00000000       0.00000000     
     64        2      45      12    STREAMS_AOI_DRN_V1A_1                     0.00000000       0.00000000     
     65        1      129     40    STREAMS_AOI_DRN_V1A_1                     0.00000000       0.00000000     
     66        1      129     39    STREAMS_AOI_DRN_V1A_1                     0.00000000       0.00000000     
     67        2      60       7    STREAMS_AOI_DRN_V1A_1                     0.00000000       0.00000000     
     68        2      174     53    STREAMS_AOI_DRN_V1A_1                     0.00000000       0.00000000     
     69        2      59      20    STREAMS_AOI_DRN_V1A_1                     0.00000000       0.00000000     
     70        1      42       4    STREAMS_AOI_DRN_V1A_1                     0.00000000       0.00000000     
     71        1      111     37    STREAMS_AOI_DRN_V1A_1                     0.00000000       0.00000000     
     72        2      41      29    STREAMS_AOI_DRN_V1A_1                     0.00000000       0.00000000     
     73        2      155     43    STREAMS_AOI_DRN_V1A_1                     0.00000000       0.00000000     
     74        1      42      14    STREAMS_AOI_DRN_V1A_1                     0.00000000       0.00000000     
     75        1      112      9    STREAMS_AOI_DRN_V1A_1                     0.00000000       0.00000000     
     76        2      156     35    STREAMS_AOI_DRN_V1A_1                     0.00000000       0.00000000     
     77        2       1      50    STREAMS_AOI_DRN_V1A_1                     0.00000000       0.00000000     
     78        2       2      32    STREAMS_AOI_DRN_V1A_1                     0.00000000       0.00000000     
     79        2       2      31    STREAMS_AOI_DRN_V1A_1                     0.00000000       0.00000000     
     80        2       2      30    STREAMS_AOI_DRN_V1A_1                     0.00000000       0.00000000     
     81        2       3      12    STREAMS_AOI_DRN_V1A_1                     0.00000000       0.00000000     
     82        2      12       2    STREAMS_AOI_DRN_V1A_1                     0.00000000       0.00000000     
     83        2      10      52    STREAMS_AOI_DRN_V1A_1                     0.00000000       0.00000000     
     84        2      120     19    STREAMS_AOI_DRN_V1A_1                     0.00000000       0.00000000     
     85        2      11      24    STREAMS_AOI_DRN_V1A_1                     0.00000000       0.00000000     
     86        2      120     17    STREAMS_AOI_DRN_V1A_1                     0.00000000       0.00000000     
     87        2      120     16    STREAMS_AOI_DRN_V1A_1                     0.00000000       0.00000000     
     88        2      11      51    STREAMS_AOI_DRN_V1A_1                     0.00000000       0.00000000     
     89        2      120     50    STREAMS_AOI_DRN_V1A_1                     0.00000000       0.00000000     
     90        1       5      23    STREAMS_AOI_DRN_V1A_1                     0.00000000       0.00000000     
     91        1      42      51    STREAMS_AOI_DRN_V1A_1                     0.00000000       0.00000000     
     92        1      42      31    STREAMS_AOI_DRN_V1A_1                     0.00000000       0.00000000     
     93        1      42      22    STREAMS_AOI_DRN_V1A_1                     0.00000000       0.00000000     
     94        1      42      17    STREAMS_AOI_DRN_V1A_1                     0.00000000       0.00000000     
     95        1      42      10    STREAMS_AOI_DRN_V1A_1                     0.00000000       0.00000000     
     96        1      42       6    STREAMS_AOI_DRN_V1A_1                     0.00000000       0.00000000     
     97        1      111     29    STREAMS_AOI_DRN_V1A_1                     0.00000000       0.00000000     
     98        1      111     26    STREAMS_AOI_DRN_V1A_1                     0.00000000       0.00000000     
     99        1      111     17    STREAMS_AOI_DRN_V1A_1                     0.00000000       0.00000000     
    100        1      111     25    STREAMS_AOI_DRN_V1A_1                     0.00000000       0.00000000     
    101        2      40      48    STREAMS_AOI_DRN_V1A_1                     0.00000000       0.00000000     
    102        2      155      3    STREAMS_AOI_DRN_V1A_1                     0.00000000       0.00000000     
    103        2       3      12    STREAMS_AOI_DRN_V1A_1                     0.00000000       0.00000000     
    104        2       3      11    STREAMS_AOI_DRN_V1A_1                     0.00000000       0.00000000     
    105        2      111      2    STREAMS_AOI_DRN_V1A_1                     0.00000000       0.00000000     
    106        2       3      45    STREAMS_AOI_DRN_V1A_1                     0.00000000       0.00000000     
    107        3      55      42    STREAMS_AOI_DRN_V1A_1                     0.00000000       0.00000000     
    108        4       7      30    STREAMS_AOI_DRN_V1A_1                     0.00000000       0.00000000     
    109        2      113      3    STREAMS_AOI_DRN_V1A_1                     0.00000000       0.00000000     
    110        3      57      10    STREAMS_AOI_DRN_V1A_1                     0.00000000       0.00000000     
    111        4       8      14    STREAMS_AOI_DRN_V1A_1                     0.00000000       0.00000000     
    112        3      57      47    STREAMS_AOI_DRN_V1A_1                     0.00000000       0.00000000     
    113        4       8      52    STREAMS_AOI_DRN_V1A_1                     0.00000000       0.00000000     
    114        4      154      4    STREAMS_AOI_DRN_V1A_1                     0.00000000       0.00000000     
    115        4       9      37    STREAMS_AOI_DRN_V1A_1                     0.00000000       0.00000000     
    116        4      155      3    STREAMS_AOI_DRN_V1A_1                     0.00000000       0.00000000     
    117        4      155      2    STREAMS_AOI_DRN_V1A_1                     0.00000000       0.00000000     
    118        3      81      30    STREAMS_AOI_DRN_V1A_1                     0.00000000       0.00000000     
    119        3      80      43    STREAMS_AOI_DRN_V1A_1                     0.00000000       0.00000000     
    120        3      80       2    STREAMS_AOI_DRN_V1A_1                     0.00000000       0.00000000     
    121        3      79      16    STREAMS_AOI_DRN_V1A_1                     0.00000000       0.00000000     
    122        3      79      15    STREAMS_AOI_DRN_V1A_1                     0.00000000       0.00000000     
    123        3      78      30    STREAMS_AOI_DRN_V1A_1                     0.00000000       0.00000000     
    124        4      30       3    STREAMS_AOI_DRN_V1A_1                     0.00000000       0.00000000     
    125        4      30       2    STREAMS_AOI_DRN_V1A_1                     0.00000000       0.00000000     
    126        4      29      15    STREAMS_AOI_DRN_V1A_1                     0.00000000       0.00000000     
    127        4      28      30    STREAMS_AOI_DRN_V1A_1                     0.00000000       0.00000000     
    128        5       7      40    STREAMS_AOI_DRN_V1A_1                     0.00000000       0.00000000     
    129        5       8      37    STREAMS_AOI_DRN_V1A_1                     0.00000000       0.00000000     
    130        1      118     40    STREAMS_AOI_DRN_V1A_1                     0.00000000       0.00000000     
    131        1      118      3    STREAMS_AOI_DRN_V1A_1                     0.00000000       0.00000000     
    132        1      117     21    STREAMS_AOI_DRN_V1A_1                     0.00000000       0.00000000     
    133        1      36      31    STREAMS_AOI_DRN_V1A_1                     0.00000000       0.00000000     
    134        1      36      30    STREAMS_AOI_DRN_V1A_1                     0.00000000       0.00000000     
    135        1      36      17    STREAMS_AOI_DRN_V1A_1                     0.00000000       0.00000000     
    136        1      36      16    STREAMS_AOI_DRN_V1A_1                     0.00000000       0.00000000     
    137        1      36      28    STREAMS_AOI_DRN_V1A_1                     0.00000000       0.00000000     
    138        1      36      15    STREAMS_AOI_DRN_V1A_1                     0.00000000       0.00000000     
    139        1      35      22    STREAMS_AOI_DRN_V1A_1                     0.00000000       0.00000000     
    140        1      35      38    STREAMS_AOI_DRN_V1A_1                     0.00000000       0.00000000     
    141        1      35      37    STREAMS_AOI_DRN_V1A_1                     0.00000000       0.00000000     
    142        1      88      31    STREAMS_AOI_DRN_V1A_1                     0.00000000       0.00000000     
    143        1      165     52    STREAMS_AOI_DRN_V1A_1                     0.00000000       0.00000000     
    144        1      133     31    STREAMS_AOI_DRN_V1A_1                     0.00000000       0.00000000     
    145        1      133     30    STREAMS_AOI_DRN_V1A_1                     0.00000000       0.00000000     
    146        3       5      36    STREAMS_AOI_DRN_V1A_1                     0.00000000       0.00000000     
    147        3      129      1    STREAMS_AOI_DRN_V1A_1                     0.00000000       0.00000000     
    148        4      91      54    STREAMS_AOI_DRN_V1A_1                     0.00000000       0.00000000     
    149        5      75       1    STREAMS_AOI_DRN_V1A_1                     0.00000000       0.00000000     
    150        2      72      52    STREAMS_AOI_DRN_V1A_1                     0.00000000       0.00000000     
    151        1      141     50    STREAMS_AOI_DRN_V1A_1                     0.00000000       0.00000000     
    152        2      73      37    STREAMS_AOI_DRN_V1A_1                     0.00000000       0.00000000     
    153        2      73      36    STREAMS_AOI_DRN_V1A_1                     0.00000000       0.00000000     
    154        1      142     28    STREAMS_AOI_DRN_V1A_1                     0.00000000       0.00000000     
    155        2      74      23    STREAMS_AOI_DRN_V1A_1                     0.00000000       0.00000000     
    156        3      16      23    STREAMS_AOI_DRN_V1A_1                     0.00000000       0.00000000     
    157        2      75      10    STREAMS_AOI_DRN_V1A_1                     0.00000000       0.00000000     
    158        3      17      13    STREAMS_AOI_DRN_V1A_1                     0.00000000       0.00000000     
    159        2      75      50    STREAMS_AOI_DRN_V1A_1                     0.00000000       0.00000000     
    160        3      18      43    STREAMS_AOI_DRN_V1A_1                     0.00000000       0.00000000     
    161        3      144      7    STREAMS_AOI_DRN_V1A_1                     0.00000000       0.00000000     
    162        3      144      7    STREAMS_AOI_DRN_V1A_1                     0.00000000       0.00000000     
    163        3      144      6    STREAMS_AOI_DRN_V1A_1                     0.00000000       0.00000000     
    164        3      144      5    STREAMS_AOI_DRN_V1A_1                     0.00000000       0.00000000     
    165        1      165     52    STREAMS_AOI_DRN_V1A_1                     0.00000000       0.00000000     
    166        1      165     51    STREAMS_AOI_DRN_V1A_1                     0.00000000       0.00000000     
    167        1      166     35    STREAMS_AOI_DRN_V1A_1                     0.00000000       0.00000000     
    168        1      167     14    STREAMS_AOI_DRN_V1A_1                     0.00000000       0.00000000     
    169        2      100     37    STREAMS_AOI_DRN_V1A_1                     0.00000000       0.00000000     
    170        2      100     36    STREAMS_AOI_DRN_V1A_1                     0.00000000       0.00000000     
    171        2      101     13    STREAMS_AOI_DRN_V1A_1                     0.00000000       0.00000000     
    172        2      101     12    STREAMS_AOI_DRN_V1A_1                     0.00000000       0.00000000     
    173        3      62      42    STREAMS_AOI_DRN_V1A_1                     0.00000000       0.00000000     
    174        4      14       3    STREAMS_AOI_DRN_V1A_1                     0.00000000       0.00000000     
    175        4      161      3    STREAMS_AOI_DRN_V1A_1                     0.00000000       0.00000000     
    176        1      117     21    STREAMS_AOI_DRN_V1A_1                     0.00000000       0.00000000     
    177        1      116     38    STREAMS_AOI_DRN_V1A_1                     0.00000000       0.00000000     
    178        2      45      45    STREAMS_AOI_DRN_V1A_1                     0.00000000       0.00000000     
    179        2      45      12    STREAMS_AOI_DRN_V1A_1                     0.00000000       0.00000000     
    180        2      13       8    STREAMS_AOI_DRN_V1A_1                     0.00000000       0.00000000     
    181        2      11      51    STREAMS_AOI_DRN_V1A_1                     0.00000000       0.00000000     
    182        2      120     50    STREAMS_AOI_DRN_V1A_1                     0.00000000       0.00000000     
    183        1      36      49    STREAMS_AOI_DRN_V1A_1                     0.00000000       0.00000000     
    184        1      36      48    STREAMS_AOI_DRN_V1A_1                     0.00000000       0.00000000     
    185        1      36      47    STREAMS_AOI_DRN_V1A_1                     0.00000000       0.00000000     
    186        1      36      46    STREAMS_AOI_DRN_V1A_1                     0.00000000       0.00000000     
    187        1      36      32    STREAMS_AOI_DRN_V1A_1                     0.00000000       0.00000000     
    188        1      36      31    STREAMS_AOI_DRN_V1A_1                     0.00000000       0.00000000     
    189        2      153     22    STREAMS_AOI_DRN_V1A_1                     0.00000000       0.00000000     
    190        3      100     36    STREAMS_AOI_DRN_V1A_1                     0.00000000       0.00000000     
    191        3      100     35    STREAMS_AOI_DRN_V1A_1                     0.00000000       0.00000000     
    192        3      100     24    STREAMS_AOI_DRN_V1A_1                     0.00000000       0.00000000     
    193        4      55      35    STREAMS_AOI_DRN_V1A_1                     0.00000000       0.00000000     
    194        4      55       3    STREAMS_AOI_DRN_V1A_1                     0.00000000       0.00000000     
    195        4      54      25    STREAMS_AOI_DRN_V1A_1                     0.00000000       0.00000000     
    196        2      147      9    STREAMS_AOI_DRN_V1A_1                     0.00000000       0.00000000     
    197        2      147     50    STREAMS_AOI_DRN_V1A_1                     0.00000000       0.00000000     
    198        2      148     37    STREAMS_AOI_DRN_V1A_1                     0.00000000       0.00000000     
    199        3      95      26    STREAMS_AOI_DRN_V1A_1                     0.00000000       0.00000000     
    200        3      95      25    STREAMS_AOI_DRN_V1A_1                     0.00000000       0.00000000     
    201        4      48      20    STREAMS_AOI_DRN_V1A_1                     0.00000000       0.00000000     
    202        4      47      27    STREAMS_AOI_DRN_V1A_1                     0.00000000       0.00000000     
    203        4      47      26    STREAMS_AOI_DRN_V1A_1                     0.00000000       0.00000000     
    204        4      46      33    STREAMS_AOI_DRN_V1A_1                     0.00000000       0.00000000     
    205        5      28      40    STREAMS_AOI_DRN_V1A_1                     0.00000000       0.00000000     
    206        5      27      42    STREAMS_AOI_DRN_V1A_1                     0.00000000       0.00000000     
    207        5      27      41    STREAMS_AOI_DRN_V1A_1                     0.00000000       0.00000000     
    208        5      27      40    STREAMS_AOI_DRN_V1A_1                     0.00000000       0.00000000     
    209        1      79      18    STREAMS_AOI_DRN_V1A_1                     0.00000000       0.00000000     
    210        1      79      17    STREAMS_AOI_DRN_V1A_1                     0.00000000       0.00000000     
    211        1      79      15    STREAMS_AOI_DRN_V1A_1                     0.00000000       0.00000000     
    212        1      79      14    STREAMS_AOI_DRN_V1A_1                     0.00000000       0.00000000     
    213        1      79      13    STREAMS_AOI_DRN_V1A_1                     0.00000000       0.00000000     
    214        1      78      30    STREAMS_AOI_DRN_V1A_1                     0.00000000       0.00000000     
    215        1      79      12    STREAMS_AOI_DRN_V1A_1                     0.00000000       0.00000000     
    216        1      79      11    STREAMS_AOI_DRN_V1A_1                     0.00000000       0.00000000     
    217        1      155     19    STREAMS_AOI_DRN_V1A_1                     0.00000000       0.00000000     
    218        2      88       2    STREAMS_AOI_DRN_V1A_1                     0.00000000       0.00000000     
    219        2      88      41    STREAMS_AOI_DRN_V1A_1                     0.00000000       0.00000000     
    220        3      31      37    STREAMS_AOI_DRN_V1A_1                     0.00000000       0.00000000     
    221        3      31      36    STREAMS_AOI_DRN_V1A_1                     0.00000000       0.00000000     
    222        3      32      25    STREAMS_AOI_DRN_V1A_1                     0.00000000       0.00000000     
    223        3      32      24    STREAMS_AOI_DRN_V1A_1                     0.00000000       0.00000000     
    224        3      156     47    STREAMS_AOI_DRN_V1A_1                     0.00000000       0.00000000     
    225        3      156      1    STREAMS_AOI_DRN_V1A_1                     0.00000000       0.00000000     
    226        4      121      5    STREAMS_AOI_DRN_V1A_1                     0.00000000       0.00000000     
    227        2       3      14    STREAMS_AOI_DRN_V1A_1                     0.00000000       0.00000000     
    228        2       3      13    STREAMS_AOI_DRN_V1A_1                     0.00000000       0.00000000     
    229        2       3      12    STREAMS_AOI_DRN_V1A_1                     0.00000000       0.00000000     
    230        1      119     16    STREAMS_AOI_DRN_V1A_1                     0.00000000       0.00000000     
    231        2      48      29    STREAMS_AOI_DRN_V1A_1                     0.00000000       0.00000000     
    232        2      48      28    STREAMS_AOI_DRN_V1A_1                     0.00000000       0.00000000     
    233        2      47      41    STREAMS_AOI_DRN_V1A_1                     0.00000000       0.00000000     
    234        1      117     12    STREAMS_AOI_DRN_V1A_1                     0.00000000       0.00000000     
    235        2      162     13    STREAMS_AOI_DRN_V1A_1                     0.00000000       0.00000000     
    236        3      83      41    STREAMS_AOI_DRN_V1A_1                     0.00000000       0.00000000     
    237        3      83      40    STREAMS_AOI_DRN_V1A_1                     0.00000000       0.00000000     
    238        4      34      32    STREAMS_AOI_DRN_V1A_1                     0.00000000       0.00000000     
    239        3      82      50    STREAMS_AOI_DRN_V1A_1                     0.00000000       0.00000000     
    240        4      34      31    STREAMS_AOI_DRN_V1A_1                     0.00000000       0.00000000     
    241        5      14      18    STREAMS_AOI_DRN_V1A_1                     0.00000000       0.00000000     
    242        2       2      33    STREAMS_AOI_DRN_V1A_1                     0.00000000       0.00000000     
    243        2       2      32    STREAMS_AOI_DRN_V1A_1                     0.00000000       0.00000000     
    244        2       3      14    STREAMS_AOI_DRN_V1A_1                     0.00000000       0.00000000     
    245        1      15      26    STREAMS_AOI_DRN_V1A_1                     0.00000000       0.00000000     
    246        1      14      47    STREAMS_AOI_DRN_V1A_1                     0.00000000       0.00000000     
    247        1      14      14    STREAMS_AOI_DRN_V1A_1                     0.00000000       0.00000000     
    248        1      14      13    STREAMS_AOI_DRN_V1A_1                     0.00000000       0.00000000     
    249        1      13      32    STREAMS_AOI_DRN_V1A_1                     0.00000000       0.00000000     
    250        1      12      17    STREAMS_AOI_DRN_V1A_1                     0.00000000       0.00000000     
    251        1      51      45    STREAMS_AOI_DRN_V1A_1                     0.00000000       0.00000000     
    252        1      51       7    STREAMS_AOI_DRN_V1A_1                     0.00000000       0.00000000     
    253        1      122     20    STREAMS_AOI_DRN_V1A_1                     0.00000000       0.00000000     
    254        1      120     44    STREAMS_AOI_DRN_V1A_1                     0.00000000       0.00000000     
    255        1      47      40    STREAMS_AOI_DRN_V1A_1                     0.00000000       0.00000000     
    256        1      47      39    STREAMS_AOI_DRN_V1A_1                     0.00000000       0.00000000     
    257        1      119     16    STREAMS_AOI_DRN_V1A_1                     0.00000000       0.00000000     
    258        1      112     29    STREAMS_AOI_DRN_V1A_1                     0.00000000       0.00000000     
    259        1      42      28    STREAMS_AOI_DRN_V1A_1                     0.00000000       0.00000000     
    260        1      42      27    STREAMS_AOI_DRN_V1A_1                     0.00000000       0.00000000     
    261        1      112     48    STREAMS_AOI_DRN_V1A_1                     0.00000000       0.00000000     
    262        2      42      42    STREAMS_AOI_DRN_V1A_1                     0.00000000       0.00000000     
    263        1      100     51    STREAMS_AOI_DRN_V1A_1                     0.00000000       0.00000000     
    264        1      101     18    STREAMS_AOI_DRN_V1A_1                     0.00000000       0.00000000     
    265        1      101     19    STREAMS_AOI_DRN_V1A_1                     0.00000000       0.00000000     
    266        1      101     38    STREAMS_AOI_DRN_V1A_1                     0.00000000       0.00000000     
    267        1      102      3    STREAMS_AOI_DRN_V1A_1                     0.00000000       0.00000000     
    268        1      102     15    STREAMS_AOI_DRN_V1A_1                     0.00000000       0.00000000     
    269        2       3      15    STREAMS_AOI_DRN_V1A_1                     0.00000000       0.00000000     
    270        2       3      14    STREAMS_AOI_DRN_V1A_1                     0.00000000       0.00000000     
    271        1      103     13    STREAMS_AOI_DRN_V1A_1                     0.00000000       0.00000000     
    272        2      12      28    STREAMS_AOI_DRN_V1A_1                     0.00000000       0.00000000     
    273        2      120     49    STREAMS_AOI_DRN_V1A_1                     0.00000000       0.00000000     
    274        4      121      5    STREAMS_AOI_DRN_V1A_1                     0.00000000       0.00000000     
    275        5      104     10    STREAMS_AOI_DRN_V1A_1                     0.00000000       0.00000000     
    276        1      112     43    STREAMS_AOI_DRN_V1A_1                     0.00000000       0.00000000     
    277        2      41      44    STREAMS_AOI_DRN_V1A_1                     0.00000000       0.00000000     
    278        2      156      4    STREAMS_AOI_DRN_V1A_1                     0.00000000       0.00000000     
    279        2      156      3    STREAMS_AOI_DRN_V1A_1                     0.00000000       0.00000000     
    280        2      155     35    STREAMS_AOI_DRN_V1A_1                     0.00000000       0.00000000     
    281        3      103     49    STREAMS_AOI_DRN_V1A_1                     0.00000000       0.00000000     
    282        4      62      16    STREAMS_AOI_DRN_V1A_1                     0.00000000       0.00000000     
    283        4      62      15    STREAMS_AOI_DRN_V1A_1                     0.00000000       0.00000000     
    284        2      155      3    STREAMS_AOI_DRN_V1A_1                     0.00000000       0.00000000     
    285        2      40      16    STREAMS_AOI_DRN_V1A_1                     0.00000000       0.00000000     
    286        3      101     38    STREAMS_AOI_DRN_V1A_1                     0.00000000       0.00000000     
    287        2      153     48    STREAMS_AOI_DRN_V1A_1                     0.00000000       0.00000000     
    288        3      101     19    STREAMS_AOI_DRN_V1A_1                     0.00000000       0.00000000     
    289        3      101      2    STREAMS_AOI_DRN_V1A_1                     0.00000000       0.00000000     
    290        3      101      1    STREAMS_AOI_DRN_V1A_1                     0.00000000       0.00000000     
    291        2      120     49    STREAMS_AOI_DRN_V1A_1                     0.00000000       0.00000000     
    292        3      64      52    STREAMS_AOI_DRN_V1A_1                     0.00000000       0.00000000     
    293        2      120     13    STREAMS_AOI_DRN_V1A_1                     0.00000000       0.00000000     
    294        4      14      53    STREAMS_AOI_DRN_V1A_1                     0.00000000       0.00000000     
    295        4      14      52    STREAMS_AOI_DRN_V1A_1                     0.00000000       0.00000000     
    296        4      14      11    STREAMS_AOI_DRN_V1A_1                     0.00000000       0.00000000     
    297        4      14      10    STREAMS_AOI_DRN_V1A_1                     0.00000000       0.00000000     
    298        2      115      6    STREAMS_AOI_DRN_V1A_1                     0.00000000       0.00000000     
    299        2      115     45    STREAMS_AOI_DRN_V1A_1                     0.00000000       0.00000000     
    300        3      60      48    STREAMS_AOI_DRN_V1A_1                     0.00000000       0.00000000     
    301        3      60      47    STREAMS_AOI_DRN_V1A_1                     0.00000000       0.00000000     
    302        4      12      43    STREAMS_AOI_DRN_V1A_1                     0.00000000       0.00000000     
    303        2      120     50    STREAMS_AOI_DRN_V1A_1                     0.00000000       0.00000000     
    304        1       8      31    STREAMS_AOI_DRN_V1A_1                     0.00000000       0.00000000     
    305        1       8       5    STREAMS_AOI_DRN_V1A_1                     0.00000000       0.00000000     
    306        1       8       4    STREAMS_AOI_DRN_V1A_1                     0.00000000       0.00000000     
    307        1      47      11    STREAMS_AOI_DRN_V1A_1                     0.00000000       0.00000000     
    308        1      99      51    STREAMS_AOI_DRN_V1A_1                     0.00000000       0.00000000     
    309        2       8      10    STREAMS_AOI_DRN_V1A_1                     0.00000000       0.00000000     
    310        2       8      40    STREAMS_AOI_DRN_V1A_1                     0.00000000       0.00000000     
    311        2      117     39    STREAMS_AOI_DRN_V1A_1                     0.00000000       0.00000000     
    312        3      62      12    STREAMS_AOI_DRN_V1A_1                     0.00000000       0.00000000     
    313        3      62      11    STREAMS_AOI_DRN_V1A_1                     0.00000000       0.00000000     
    314        4      14      11    STREAMS_AOI_DRN_V1A_1                     0.00000000       0.00000000     
    315        4      14      10    STREAMS_AOI_DRN_V1A_1                     0.00000000       0.00000000     
    316        1      10       5    STREAMS_AOI_DRN_V1A_1                     0.00000000       0.00000000     
    317        1       9      31    STREAMS_AOI_DRN_V1A_1                     0.00000000       0.00000000     
    318        1       9       4    STREAMS_AOI_DRN_V1A_1                     0.00000000       0.00000000     
    319        1       9       3    STREAMS_AOI_DRN_V1A_1                     0.00000000       0.00000000     
    320        1       8      31    STREAMS_AOI_DRN_V1A_1                     0.00000000       0.00000000     
    321        1      82       1    STREAMS_AOI_DRN_V1A_1                     0.00000000       0.00000000     
    322        1      81      20    STREAMS_AOI_DRN_V1A_1                     0.00000000       0.00000000     
    323        1      81      19    STREAMS_AOI_DRN_V1A_1                     0.00000000       0.00000000     
    324        1      80      37    STREAMS_AOI_DRN_V1A_1                     0.00000000       0.00000000     
    325        1      80       1    STREAMS_AOI_DRN_V1A_1                     0.00000000       0.00000000     
    326        1      79      18    STREAMS_AOI_DRN_V1A_1                     0.00000000       0.00000000     
    327        2      59      20    STREAMS_AOI_DRN_V1A_1                     0.00000000       0.00000000     
    328        2      59      19    STREAMS_AOI_DRN_V1A_1                     0.00000000       0.00000000     
    329        4      85      31    STREAMS_AOI_DRN_V1A_1                     0.00000000       0.00000000     
    330        4      86      26    STREAMS_AOI_DRN_V1A_1                     0.00000000       0.00000000     
    331        5      69      27    STREAMS_AOI_DRN_V1A_1                     0.00000000       0.00000000     
    332        1      83      47    STREAMS_AOI_DRN_V1A_1                     0.00000000       0.00000000     
    333        1      83      46    STREAMS_AOI_DRN_V1A_1                     0.00000000       0.00000000     
    334        1      83      11    STREAMS_AOI_DRN_V1A_1                     0.00000000       0.00000000     
    335        1      159     30    STREAMS_AOI_DRN_V1A_1                     0.00000000       0.00000000     
    336        2      92      24    STREAMS_AOI_DRN_V1A_1                     0.00000000       0.00000000     
    337        2      92      23    STREAMS_AOI_DRN_V1A_1                     0.00000000       0.00000000     
    338        3      35      36    STREAMS_AOI_DRN_V1A_1                     0.00000000       0.00000000     
    339        3      34      46    STREAMS_AOI_DRN_V1A_1                     0.00000000       0.00000000     
    340        3      34      45    STREAMS_AOI_DRN_V1A_1                     0.00000000       0.00000000     
    341        3      34      44    STREAMS_AOI_DRN_V1A_1                     0.00000000       0.00000000     
    342        4      124     48    STREAMS_AOI_DRN_V1A_1                     0.00000000       0.00000000     
    343        2      156     35    STREAMS_AOI_DRN_V1A_1                     0.00000000       0.00000000     
    344        2      156     11    STREAMS_AOI_DRN_V1A_1                     0.00000000       0.00000000     
    345        2      155     43    STREAMS_AOI_DRN_V1A_1                     0.00000000       0.00000000     
    346        1       9       5    STREAMS_AOI_DRN_V1A_1                     0.00000000       0.00000000     
    347        1       8      32    STREAMS_AOI_DRN_V1A_1                     0.00000000       0.00000000     
    348        1       9       4    STREAMS_AOI_DRN_V1A_1                     0.00000000       0.00000000     
    349        3      155     10    STREAMS_AOI_DRN_V1A_1                     0.00000000       0.00000000     
    350        4      120      8    STREAMS_AOI_DRN_V1A_1                     0.00000000       0.00000000     
    351        4      121      5    STREAMS_AOI_DRN_V1A_1                     0.00000000       0.00000000     
    352        3      45      27    STREAMS_AOI_DRN_V1A_1                     0.00000000       0.00000000     
    353        3      45      26    STREAMS_AOI_DRN_V1A_1                     0.00000000       0.00000000     
    354        3      45      25    STREAMS_AOI_DRN_V1A_1                     0.00000000       0.00000000     
    355        3      45      24    STREAMS_AOI_DRN_V1A_1                     0.00000000       0.00000000     
    356        3      45      23    STREAMS_AOI_DRN_V1A_1                     0.00000000       0.00000000     
    357        3      46       6    STREAMS_AOI_DRN_V1A_1                     0.00000000       0.00000000     
    358        2      16      36    STREAMS_AOI_DRN_V1A_1                     0.00000000       0.00000000     
    359        2      17      13    STREAMS_AOI_DRN_V1A_1                     0.00000000       0.00000000     
    360        2      17      12    STREAMS_AOI_DRN_V1A_1                     0.00000000       0.00000000     
    361        3      144      7    STREAMS_AOI_DRN_V1A_1                     0.00000000       0.00000000     
    362        3      144      5    STREAMS_AOI_DRN_V1A_1                     0.00000000       0.00000000     
    363        4      106     53    STREAMS_AOI_DRN_V1A_1                     0.00000000       0.00000000     
    364        4      106      1    STREAMS_AOI_DRN_V1A_1                     0.00000000       0.00000000     
    365        4      105     54    STREAMS_AOI_DRN_V1A_1                     0.00000000       0.00000000     
    366        4      105     53    STREAMS_AOI_DRN_V1A_1                     0.00000000       0.00000000     
    367        4      105      1    STREAMS_AOI_DRN_V1A_1                     0.00000000       0.00000000     
    368        5      89       3    STREAMS_AOI_DRN_V1A_1                     0.00000000       0.00000000     
    369        1      19      12    STREAMS_AOI_DRN_V1A_1                     0.00000000       0.00000000     
    370        1      19      44    STREAMS_AOI_DRN_V1A_1                     0.00000000       0.00000000     
    371        1      20      21    STREAMS_AOI_DRN_V1A_1                     0.00000000       0.00000000     
    372        1      20      22    STREAMS_AOI_DRN_V1A_1                     0.00000000       0.00000000     
    373        1      20      52    STREAMS_AOI_DRN_V1A_1                     0.00000000       0.00000000     
    374        1      22      24    STREAMS_AOI_DRN_V1A_1                     0.00000000       0.00000000     
    375        1      64      25    STREAMS_AOI_DRN_V1A_1                     0.00000000       0.00000000     
    376        1      64      24    STREAMS_AOI_DRN_V1A_1                     0.00000000       0.00000000     
    377        1      64      54    STREAMS_AOI_DRN_V1A_1                     0.00000000       0.00000000     
    378        1      64      53    STREAMS_AOI_DRN_V1A_1                     0.00000000       0.00000000     
    379        1      64      22    STREAMS_AOI_DRN_V1A_1                     0.00000000       0.00000000     
    380        1      64      21    STREAMS_AOI_DRN_V1A_1                     0.00000000       0.00000000     
    381        2      72      52    STREAMS_AOI_DRN_V1A_1                     0.00000000       0.00000000     
    382        2      45      12    STREAMS_AOI_DRN_V1A_1                     0.00000000       0.00000000     
    383        2      44      34    STREAMS_AOI_DRN_V1A_1                     0.00000000       0.00000000     
    384        2      44       7    STREAMS_AOI_DRN_V1A_1                     0.00000000       0.00000000     
    385        2      43      36    STREAMS_AOI_DRN_V1A_1                     0.00000000       0.00000000     
    386        2      43      12    STREAMS_AOI_DRN_V1A_1                     0.00000000       0.00000000     
    387        2      42      42    STREAMS_AOI_DRN_V1A_1                     0.00000000       0.00000000     
    388        1      33      22    STREAMS_AOI_DRN_V1A_1                     0.00000000       0.00000000     
    389        1      33      32    STREAMS_AOI_DRN_V1A_1                     0.00000000       0.00000000     
    390        1      85      23    STREAMS_AOI_DRN_V1A_1                     0.00000000       0.00000000     
    391        1      86       3    STREAMS_AOI_DRN_V1A_1                     0.00000000       0.00000000     
    392        1      75      43    STREAMS_AOI_DRN_V1A_1                     0.00000000       0.00000000     
    393        1      75       6    STREAMS_AOI_DRN_V1A_1                     0.00000000       0.00000000     
    394        1      75       5    STREAMS_AOI_DRN_V1A_1                     0.00000000       0.00000000     
    395        1      75      40    STREAMS_AOI_DRN_V1A_1                     0.00000000       0.00000000     
    396        1      151     40    STREAMS_AOI_DRN_V1A_1                     0.00000000       0.00000000     
    397        1      151     39    STREAMS_AOI_DRN_V1A_1                     0.00000000       0.00000000     
    398        1      151     37    STREAMS_AOI_DRN_V1A_1                     0.00000000       0.00000000     
    399        3      26      48    STREAMS_AOI_DRN_V1A_1                     0.00000000       0.00000000     
    400        3      27      37    STREAMS_AOI_DRN_V1A_1                     0.00000000       0.00000000     
    401        3      27      36    STREAMS_AOI_DRN_V1A_1                     0.00000000       0.00000000     
    402        3      152     34    STREAMS_AOI_DRN_V1A_1                     0.00000000       0.00000000     
    403        4      117     17    STREAMS_AOI_DRN_V1A_1                     0.00000000       0.00000000     
    404        4      117     16    STREAMS_AOI_DRN_V1A_1                     0.00000000       0.00000000     
    405        4      118     13    STREAMS_AOI_DRN_V1A_1                     0.00000000       0.00000000     
    406        1      72      54    STREAMS_AOI_DRN_V1A_1                     0.00000000       0.00000000     
    407        1      72      16    STREAMS_AOI_DRN_V1A_1                     0.00000000       0.00000000     
    408        1      148      2    STREAMS_AOI_DRN_V1A_1                     0.00000000       0.00000000     
    409        2      79      36    STREAMS_AOI_DRN_V1A_1                     0.00000000       0.00000000     
    410        1      147     14    STREAMS_AOI_DRN_V1A_1                     0.00000000       0.00000000     
    411        2      78      45    STREAMS_AOI_DRN_V1A_1                     0.00000000       0.00000000     
    412        3      21       4    STREAMS_AOI_DRN_V1A_1                     0.00000000       0.00000000     
    413        3      144      7    STREAMS_AOI_DRN_V1A_1                     0.00000000       0.00000000     
    414        1      46      54    STREAMS_AOI_DRN_V1A_1                     0.00000000       0.00000000     
    415        1      46      53    STREAMS_AOI_DRN_V1A_1                     0.00000000       0.00000000     
    416        1      118     27    STREAMS_AOI_DRN_V1A_1                     0.00000000       0.00000000     
    417        1      118     26    STREAMS_AOI_DRN_V1A_1                     0.00000000       0.00000000     
    418        1      118     24    STREAMS_AOI_DRN_V1A_1                     0.00000000       0.00000000     
    419        2      48      18    STREAMS_AOI_DRN_V1A_1                     0.00000000       0.00000000     
    420        2      48      17    STREAMS_AOI_DRN_V1A_1                     0.00000000       0.00000000     
    421        2      162     44    STREAMS_AOI_DRN_V1A_1                     0.00000000       0.00000000     
    422        2      161     15    STREAMS_AOI_DRN_V1A_1                     0.00000000       0.00000000     
    423        3      109     25    STREAMS_AOI_DRN_V1A_1                     0.00000000       0.00000000     
    424        3      108     39    STREAMS_AOI_DRN_V1A_1                     0.00000000       0.00000000     
    425        4      68      14    STREAMS_AOI_DRN_V1A_1                     0.00000000       0.00000000     
    426        4      66      46    STREAMS_AOI_DRN_V1A_1                     0.00000000       0.00000000     
    427        4      67      29    STREAMS_AOI_DRN_V1A_1                     0.00000000       0.00000000     
    428        4      67      28    STREAMS_AOI_DRN_V1A_1                     0.00000000       0.00000000     
    429        5      48      50    STREAMS_AOI_DRN_V1A_1                     0.00000000       0.00000000     
    430        1      128     13    STREAMS_AOI_DRN_V1A_1                     0.00000000       0.00000000     
    431        2      174     53    STREAMS_AOI_DRN_V1A_1                     0.00000000       0.00000000     
    432        2      59      20    STREAMS_AOI_DRN_V1A_1                     0.00000000       0.00000000     
    433        1      42      25    STREAMS_AOI_DRN_V1A_1                     0.00000000       0.00000000     
    434        1      42      20    STREAMS_AOI_DRN_V1A_1                     0.00000000       0.00000000     
    435        1      42      13    STREAMS_AOI_DRN_V1A_1                     0.00000000       0.00000000     
    436        1      111     44    STREAMS_AOI_DRN_V1A_1                     0.00000000       0.00000000     
    437        1      42       8    STREAMS_AOI_DRN_V1A_1                     0.00000000       0.00000000     
    438        1      111     15    STREAMS_AOI_DRN_V1A_1                     0.00000000       0.00000000     
    439        1      111      5    STREAMS_AOI_DRN_V1A_1                     0.00000000       0.00000000     
    440        2      39      45    STREAMS_AOI_DRN_V1A_1                     0.00000000       0.00000000     
    441        2      39      44    STREAMS_AOI_DRN_V1A_1                     0.00000000       0.00000000     
    442        2      153     32    STREAMS_AOI_DRN_V1A_1                     0.00000000       0.00000000     
    443        2      153     22    STREAMS_AOI_DRN_V1A_1                     0.00000000       0.00000000     
    444        2      17      40    STREAMS_AOI_DRN_V1A_1                     0.00000000       0.00000000     
    445        2      18      14    STREAMS_AOI_DRN_V1A_1                     0.00000000       0.00000000     
    446        2      18      44    STREAMS_AOI_DRN_V1A_1                     0.00000000       0.00000000     
    447        2      19      21    STREAMS_AOI_DRN_V1A_1                     0.00000000       0.00000000     
    448        2      19      20    STREAMS_AOI_DRN_V1A_1                     0.00000000       0.00000000     
    449        2      19      19    STREAMS_AOI_DRN_V1A_1                     0.00000000       0.00000000     
    450        2      19      18    STREAMS_AOI_DRN_V1A_1                     0.00000000       0.00000000     
    451        2      19      17    STREAMS_AOI_DRN_V1A_1                     0.00000000       0.00000000     
    452        2      18      39    STREAMS_AOI_DRN_V1A_1                     0.00000000       0.00000000     
    453        2      128     15    STREAMS_AOI_DRN_V1A_1                     0.00000000       0.00000000     
    454        2      18      38    STREAMS_AOI_DRN_V1A_1                     0.00000000       0.00000000     
    455        3      72       6    STREAMS_AOI_DRN_V1A_1                     0.00000000       0.00000000     
    456        3      72       5    STREAMS_AOI_DRN_V1A_1                     0.00000000       0.00000000     
    457        3      72       4    STREAMS_AOI_DRN_V1A_1                     0.00000000       0.00000000     
    458        3      72       3    STREAMS_AOI_DRN_V1A_1                     0.00000000       0.00000000     
    459        4      24      22    STREAMS_AOI_DRN_V1A_1                     0.00000000       0.00000000     
    460        4      23      40    STREAMS_AOI_DRN_V1A_1                     0.00000000       0.00000000     
    461        4      23      39    STREAMS_AOI_DRN_V1A_1                     0.00000000       0.00000000     
    462        4      23       2    STREAMS_AOI_DRN_V1A_1                     0.00000000       0.00000000     
    463        4      173     51    STREAMS_AOI_DRN_V1A_1                     0.00000000       0.00000000     
    464        2      17      12    STREAMS_AOI_DRN_V1A_1                     0.00000000       0.00000000     
    465        2      17      41    STREAMS_AOI_DRN_V1A_1                     0.00000000       0.00000000     
    466        2      17      40    STREAMS_AOI_DRN_V1A_1                     0.00000000       0.00000000     
    467        1      86       3    STREAMS_AOI_DRN_V1A_1                     0.00000000       0.00000000     
    468        1      85      23    STREAMS_AOI_DRN_V1A_1                     0.00000000       0.00000000     
    469        1      85      22    STREAMS_AOI_DRN_V1A_1                     0.00000000       0.00000000     
    470        1      85      21    STREAMS_AOI_DRN_V1A_1                     0.00000000       0.00000000     
    471        1      85      20    STREAMS_AOI_DRN_V1A_1                     0.00000000       0.00000000     
    472        1      85      19    STREAMS_AOI_DRN_V1A_1                     0.00000000       0.00000000     
    473        1      85      18    STREAMS_AOI_DRN_V1A_1                     0.00000000       0.00000000     
    474        1      84      37    STREAMS_AOI_DRN_V1A_1                     0.00000000       0.00000000     
    475        1      84      36    STREAMS_AOI_DRN_V1A_1                     0.00000000       0.00000000     
    476        1      85      17    STREAMS_AOI_DRN_V1A_1                     0.00000000       0.00000000     
    477        1      163     34    STREAMS_AOI_DRN_V1A_1                     0.00000000       0.00000000     
    478        1      87       9    STREAMS_AOI_DRN_V1A_1                     0.00000000       0.00000000     
    479        1      164     23    STREAMS_AOI_DRN_V1A_1                     0.00000000       0.00000000     
    480        1      165     11    STREAMS_AOI_DRN_V1A_1                     0.00000000       0.00000000     
    481        1      165     52    STREAMS_AOI_DRN_V1A_1                     0.00000000       0.00000000     
    482        1      165     43    STREAMS_AOI_DRN_V1A_1                     0.00000000       0.00000000     
    483        1      165     42    STREAMS_AOI_DRN_V1A_1                     0.00000000       0.00000000     
    484        1      166     28    STREAMS_AOI_DRN_V1A_1                     0.00000000       0.00000000     
    485        2      100     29    STREAMS_AOI_DRN_V1A_1                     0.00000000       0.00000000     
    486        3      44      40    STREAMS_AOI_DRN_V1A_1                     0.00000000       0.00000000     
    487        3      44      39    STREAMS_AOI_DRN_V1A_1                     0.00000000       0.00000000     
    488        3      46       6    STREAMS_AOI_DRN_V1A_1                     0.00000000       0.00000000     
    489        2       1      13    STREAMS_AOI_DRN_V1A_1                     0.00000000       0.00000000     
    490        2       1      51    STREAMS_AOI_DRN_V1A_1                     0.00000000       0.00000000     
    491        2       1      50    STREAMS_AOI_DRN_V1A_1                     0.00000000       0.00000000     
    492        1      69       9    STREAMS_AOI_DRN_V1A_1                     0.00000000       0.00000000     
    493        1      69      45    STREAMS_AOI_DRN_V1A_1                     0.00000000       0.00000000     
    494        1      69      44    STREAMS_AOI_DRN_V1A_1                     0.00000000       0.00000000     
    495        1      69       8    STREAMS_AOI_DRN_V1A_1                     0.00000000       0.00000000     
    496        1      69       7    STREAMS_AOI_DRN_V1A_1                     0.00000000       0.00000000     
    497        1      69       6    STREAMS_AOI_DRN_V1A_1                     0.00000000       0.00000000     
    498        1      68      25    STREAMS_AOI_DRN_V1A_1                     0.00000000       0.00000000     
    499        1      68      26    STREAMS_AOI_DRN_V1A_1                     0.00000000       0.00000000     
    500        1      143     17    STREAMS_AOI_DRN_V1A_1                     0.00000000       0.00000000     
    501        1      142     34    STREAMS_AOI_DRN_V1A_1                     0.00000000       0.00000000     
    502        1      66      35    STREAMS_AOI_DRN_V1A_1                     0.00000000       0.00000000     
    503        1      141     50    STREAMS_AOI_DRN_V1A_1                     0.00000000       0.00000000     
    504        2      72      52    STREAMS_AOI_DRN_V1A_1                     0.00000000       0.00000000     
    505        1      138     48    STREAMS_AOI_DRN_V1A_1                     0.00000000       0.00000000     
    506        3      12       7    STREAMS_AOI_DRN_V1A_1                     0.00000000       0.00000000     
    507        3      135     31    STREAMS_AOI_DRN_V1A_1                     0.00000000       0.00000000     
    508        4      98      27    STREAMS_AOI_DRN_V1A_1                     0.00000000       0.00000000     
    509        3      136     21    STREAMS_AOI_DRN_V1A_1                     0.00000000       0.00000000     
    510        4      99      23    STREAMS_AOI_DRN_V1A_1                     0.00000000       0.00000000     
    511        5      82      24    STREAMS_AOI_DRN_V1A_1                     0.00000000       0.00000000     
    512        1       9      48    STREAMS_AOI_DRN_V1A_1                     0.00000000       0.00000000     
    513        1       8      22    STREAMS_AOI_DRN_V1A_1                     0.00000000       0.00000000     
    514        1       7      50    STREAMS_AOI_DRN_V1A_1                     0.00000000       0.00000000     
    515        1       7      27    STREAMS_AOI_DRN_V1A_1                     0.00000000       0.00000000     
    516        1       7      26    STREAMS_AOI_DRN_V1A_1                     0.00000000       0.00000000     
    517        1       7       4    STREAMS_AOI_DRN_V1A_1                     0.00000000       0.00000000     
    518        1       6      35    STREAMS_AOI_DRN_V1A_1                     0.00000000       0.00000000     
    519        1      45      16    STREAMS_AOI_DRN_V1A_1                     0.00000000       0.00000000     
    520        1      45      15    STREAMS_AOI_DRN_V1A_1                     0.00000000       0.00000000     
    521        1      44      43    STREAMS_AOI_DRN_V1A_1                     0.00000000       0.00000000     
    522        1      44      20    STREAMS_AOI_DRN_V1A_1                     0.00000000       0.00000000     
    523        1       5      46    STREAMS_AOI_DRN_V1A_1                     0.00000000       0.00000000     
    524        1      43      50    STREAMS_AOI_DRN_V1A_1                     0.00000000       0.00000000     
    525        1      112     36    STREAMS_AOI_DRN_V1A_1                     0.00000000       0.00000000     
    526        1      112     19    STREAMS_AOI_DRN_V1A_1                     0.00000000       0.00000000     
    527        1      112      3    STREAMS_AOI_DRN_V1A_1                     0.00000000       0.00000000     
    528        2      41      21    STREAMS_AOI_DRN_V1A_1                     0.00000000       0.00000000     
    529        1      111     34    STREAMS_AOI_DRN_V1A_1                     0.00000000       0.00000000     
    530        1      111     23    STREAMS_AOI_DRN_V1A_1                     0.00000000       0.00000000     
    531        2      40      39    STREAMS_AOI_DRN_V1A_1                     0.00000000       0.00000000     
    532        2      40      25    STREAMS_AOI_DRN_V1A_1                     0.00000000       0.00000000     
    533        2      40       2    STREAMS_AOI_DRN_V1A_1                     0.00000000       0.00000000     
    534        2      39      47    STREAMS_AOI_DRN_V1A_1                     0.00000000       0.00000000     
    535        2      39      46    STREAMS_AOI_DRN_V1A_1                     0.00000000       0.00000000     
    536        2      153     45    STREAMS_AOI_DRN_V1A_1                     0.00000000       0.00000000     
    537        2      39      32    STREAMS_AOI_DRN_V1A_1                     0.00000000       0.00000000     
    538        2      153     23    STREAMS_AOI_DRN_V1A_1                     0.00000000       0.00000000     
    539        3      100     27    STREAMS_AOI_DRN_V1A_1                     0.00000000       0.00000000     
    540        3      100     19    STREAMS_AOI_DRN_V1A_1                     0.00000000       0.00000000     
    541        4      55       6    STREAMS_AOI_DRN_V1A_1                     0.00000000       0.00000000     
    542        4      54      28    STREAMS_AOI_DRN_V1A_1                     0.00000000       0.00000000     
    543        3      100     11    STREAMS_AOI_DRN_V1A_1                     0.00000000       0.00000000     
    544        4      53      50    STREAMS_AOI_DRN_V1A_1                     0.00000000       0.00000000     
    545        1       9      35    STREAMS_AOI_DRN_V1A_1                     0.00000000       0.00000000     
    546        1       9       8    STREAMS_AOI_DRN_V1A_1                     0.00000000       0.00000000     
    547        1       8      36    STREAMS_AOI_DRN_V1A_1                     0.00000000       0.00000000     
    548        1       8      35    STREAMS_AOI_DRN_V1A_1                     0.00000000       0.00000000     
    549        1       8      34    STREAMS_AOI_DRN_V1A_1                     0.00000000       0.00000000     
    550        1       9       6    STREAMS_AOI_DRN_V1A_1                     0.00000000       0.00000000     
    551        1       9       5    STREAMS_AOI_DRN_V1A_1                     0.00000000       0.00000000     
    552        2      155     43    STREAMS_AOI_DRN_V1A_1                     0.00000000       0.00000000     
    553        2      40      48    STREAMS_AOI_DRN_V1A_1                     0.00000000       0.00000000     
    554        2      155      3    STREAMS_AOI_DRN_V1A_1                     0.00000000       0.00000000     
    555        2      160     39    STREAMS_AOI_DRN_V1A_1                     0.00000000       0.00000000     
    556        2      160      2    STREAMS_AOI_DRN_V1A_1                     0.00000000       0.00000000     
    557        2      159     23    STREAMS_AOI_DRN_V1A_1                     0.00000000       0.00000000     
    558        3      107     29    STREAMS_AOI_DRN_V1A_1                     0.00000000       0.00000000     
    559        3      107     28    STREAMS_AOI_DRN_V1A_1                     0.00000000       0.00000000     
    560        3      106     50    STREAMS_AOI_DRN_V1A_1                     0.00000000       0.00000000     
    561        3      106     49    STREAMS_AOI_DRN_V1A_1                     0.00000000       0.00000000     
    562        3      106     17    STREAMS_AOI_DRN_V1A_1                     0.00000000       0.00000000     
    563        4      65      33    STREAMS_AOI_DRN_V1A_1                     0.00000000       0.00000000     
    564        4      65      32    STREAMS_AOI_DRN_V1A_1                     0.00000000       0.00000000     
    565        4      64      49    STREAMS_AOI_DRN_V1A_1                     0.00000000       0.00000000     
    566        4      64      12    STREAMS_AOI_DRN_V1A_1                     0.00000000       0.00000000     
    567        4      63      30    STREAMS_AOI_DRN_V1A_1                     0.00000000       0.00000000     
    568        4      63      31    STREAMS_AOI_DRN_V1A_1                     0.00000000       0.00000000     
    569        4      62      49    STREAMS_AOI_DRN_V1A_1                     0.00000000       0.00000000     
    570        4      62      14    STREAMS_AOI_DRN_V1A_1                     0.00000000       0.00000000     
    571        4      62      15    STREAMS_AOI_DRN_V1A_1                     0.00000000       0.00000000     
    572        1       9       4    STREAMS_AOI_DRN_V1A_1                     0.00000000       0.00000000     
    573        1       8      32    STREAMS_AOI_DRN_V1A_1                     0.00000000       0.00000000     
    574        1       8      31    STREAMS_AOI_DRN_V1A_1                     0.00000000       0.00000000     
    575        2      39      52    STREAMS_AOI_DRN_V1A_1                     0.00000000       0.00000000     
    576        2      39      42    STREAMS_AOI_DRN_V1A_1                     0.00000000       0.00000000     
    577        2      39      34    STREAMS_AOI_DRN_V1A_1                     0.00000000       0.00000000     
    578        2      153     30    STREAMS_AOI_DRN_V1A_1                     0.00000000       0.00000000     
    579        2      153     22    STREAMS_AOI_DRN_V1A_1                     0.00000000       0.00000000     
[...]
       1696         58         13     -0.10313070                    1_GWF-(2,46,39)  8.75423890E-07                    1_GWF-(6,43,46)
       1697         58         14     -0.11397264                    1_GWF-(4,45,40)  8.21608150E-07                    1_GWF-(6,49,49)
       1698         58         15 -4.07435892E-02                    1_GWF-(7,47,50)  1.58419115E-06                    1_GWF-(8,71,10)
       1699         58         16 -9.53214663E-02                    1_GWF-(8,44,49)  7.07449636E-07                    1_GWF-(6,68,50)
       1700         58         17 -8.33196993E-02                    1_GWF-(8,47,50)  6.16080014E-07                    1_GWF-(6,58,50)
       1701         58         18  3.15697732E-02                    1_GWF-(8,49,49)  6.57720624E-07                    1_GWF-(6,60,50)
       1702         58         19     -0.15829408                    1_GWF-(7,55,50) -5.25531590E-07                    1_GWF-(7,40,20)
       1703         58         20 -7.96343247E-02                    1_GWF-(7,56,51)  3.20117360E-07                    1_GWF-(6,62,50)
       1704         58         21  3.02254394E-03                    1_GWF-(6,33,47)  3.67823911E-07                    1_GWF-(6,59,50)
       1705         59          1     -0.13104308                    1_GWF-(4,15,26)  6.78185111E-06                    1_GWF-(7,68,11)
       1706         59          2     -0.14076481                     1_GWF-(5,30,7)  2.51774256E-06                    1_GWF-(8,13,29)
       1707         59          3     -0.26063565                     1_GWF-(4,29,8) -3.72664268E-06                    1_GWF-(8,69,10)
       1708         59          4     -0.16911201                    1_GWF-(4,15,30) -2.36959117E-06                     1_GWF-(9,28,6)
       1709         59          5     -0.17207304                    1_GWF-(6,22,23) -4.60298418E-06                    1_GWF-(8,69,10)
       1710         59          6     -0.16952374                    1_GWF-(4,25,21) -1.40265118E-06                     1_GWF-(9,29,9)
       1711         59          7     -0.17353206                    1_GWF-(7,33,27) -4.04520134E-06                    1_GWF-(8,69,11)
       1712         59          8     -0.15807431                    1_GWF-(5,34,31)  1.06697712E-06                    1_GWF-(7,43,35)
       1713         59          9     -0.35024871                    1_GWF-(5,37,30) -1.38538522E-06                    1_GWF-(7,23,26)
       1714         59         10      0.17507845                    1_GWF-(6,25,21) -2.26630072E-06                    1_GWF-(8,70,11)
       1715         59         11     -0.12416211                    1_GWF-(2,42,40)  8.80565594E-07                    1_GWF-(6,39,44)
       1716         59         12 -9.92994537E-02                    1_GWF-(1,35,43)  8.82348336E-07                    1_GWF-(6,38,46)
       1717         59         13 -8.87218190E-02                    1_GWF-(7,36,48)  7.14661004E-07                    1_GWF-(6,50,49)
       1718         59         14     -0.10098576                    1_GWF-(8,39,49)  6.58123607E-07                    1_GWF-(6,49,47)
       1719         59         15 -1.77594724E-02                    1_GWF-(5,51,48)  8.01019982E-07                    1_GWF-(8,71,10)
       1720         59         16 -8.46848492E-02                    1_GWF-(8,49,50)  5.56083558E-07                    1_GWF-(6,62,50)
       1721         59         17 -6.60269989E-02                    1_GWF-(8,49,50)  4.91038487E-07                    1_GWF-(6,58,50)
       1722         59         18 -8.28725403E-02                    1_GWF-(7,52,50)  3.93853838E-07                    1_GWF-(6,58,50)
       1723         59         19 -3.58825557E-03                    1_GWF-(6,61,51)  3.94477442E-07                    1_GWF-(6,61,50)
       1724         60          1     -0.11801916                    1_GWF-(4,15,26)  6.09245911E-06                    1_GWF-(7,68,11)
       1725         60          2     -0.12565238                     1_GWF-(5,32,7)  2.26455362E-06                    1_GWF-(8,13,29)
       1726         60          3     -0.23272943                     1_GWF-(5,30,8) -3.37429810E-06                    1_GWF-(8,69,10)
       1727         60          4     -0.15341884                    1_GWF-(4,15,30) -2.14897689E-06                     1_GWF-(9,28,6)
       1728         60          5     -0.15532694                    1_GWF-(6,21,24) -4.19327288E-06                    1_GWF-(8,69,10)
       1729         60          6     -0.15223478                    1_GWF-(4,26,21) -1.27775400E-06                     1_GWF-(9,29,9)
       1730         60          7     -0.16144269                    1_GWF-(2,35,30) -3.72689939E-06                    1_GWF-(8,69,11)
       1731         60          8     -0.14369400                    1_GWF-(5,35,30)  9.69081712E-07                    1_GWF-(7,43,35)
       1732         60          9     -0.20562880                    1_GWF-(2,35,30) -1.25761704E-06                    1_GWF-(7,23,26)
       1733         60         10  1.37881384E-02                    1_GWF-(4,23,23) -1.26004881E-06                    1_GWF-(7,24,25)
       1734         60         11     -0.14552964                    1_GWF-(8,43,35) -1.28968692E-06                    1_GWF-(7,24,25)
       1735         60         12 -9.18368376E-02                    1_GWF-(4,47,39) -1.02006470E-06                    1_GWF-(7,24,25)
       1736         60         13 -8.60983260E-02                    1_GWF-(2,47,39)  7.06128786E-07                    1_GWF-(6,40,47)
       1737         60         14 -8.24310787E-02                    1_GWF-(4,46,40)  6.59548832E-07                    1_GWF-(6,43,48)
       1738         60         15 -5.81968284E-03                    1_GWF-(6,47,49) -6.74231622E-07                    1_GWF-(7,36,21)
       1739         61          1     -0.10601385                    1_GWF-(4,15,26)  5.45289147E-06                    1_GWF-(7,68,11)
       1740         61          2     -0.11218577                     1_GWF-(5,32,7)  2.01461161E-06                    1_GWF-(8,13,29)
       1741         61          3     -0.20757420                     1_GWF-(5,30,8) -3.03827819E-06                    1_GWF-(8,69,10)
       1742         61          4     -0.13754477                    1_GWF-(4,15,30) -1.96585374E-06                     1_GWF-(9,28,6)
       1743         61          5     -0.14222121                    1_GWF-(6,21,24) -3.85699858E-06                    1_GWF-(8,69,10)
       1744         61          6     -0.14659617                    1_GWF-(4,24,22) -1.18404024E-06                     1_GWF-(9,29,9)
       1745         61          7     -0.15143501                    1_GWF-(7,31,27) -3.18534056E-06                    1_GWF-(8,69,11)
       1746         61          8     -0.51349508                    1_GWF-(5,35,30) -1.83442044E-06                    1_GWF-(7,25,24)
       1747         61          9      0.36774218                    1_GWF-(6,24,22) -1.30748300E-06                    1_GWF-(8,70,12)
       1748         61         10     -0.13036405                    1_GWF-(8,43,37)  7.93135747E-07                    1_GWF-(6,40,44)
       1749         61         11     -0.10119367                    1_GWF-(2,46,40)  6.84828399E-07                    1_GWF-(6,38,46)
       1750         61         12 -7.61612439E-02                    1_GWF-(1,38,42)  6.84194005E-07                    1_GWF-(6,36,45)
       1751         61         13 -7.30091279E-02                    1_GWF-(7,36,48)  5.80882558E-07                    1_GWF-(6,49,48)
       1752         61         14 -7.46296824E-02                    1_GWF-(8,39,49)  5.35351445E-07                    1_GWF-(6,52,49)
       1753         61         15 -1.48743555E-02                    1_GWF-(5,52,49)  6.38286233E-07                    1_GWF-(6,67,50)
       1754         61         16 -6.31736129E-02                    1_GWF-(7,48,49)  4.95892360E-07                    1_GWF-(6,61,48)
       1755         61         17 -5.14926451E-02                    1_GWF-(7,50,50)  3.81535850E-07                    1_GWF-(6,58,50)
       1756         61         18  2.13824800E-02                    1_GWF-(7,52,50)  4.29679787E-07                    1_GWF-(6,61,50)
       1757         61         19     -0.12764284                    1_GWF-(7,58,51) -3.92473032E-07                    1_GWF-(7,30,22)
       1758         61         20 -3.73880551E-02                    1_GWF-(7,56,51)  1.56223742E-07                    1_GWF-(6,62,50)
       1759         61         21  2.91692865E-02                    1_GWF-(8,57,50)  1.75888447E-07                    1_GWF-(6,60,50)
       1760         61         22 -9.13501150E-02                    1_GWF-(7,58,51)  9.88263920E-08                    1_GWF-(6,67,44)
       1761         61         23 -1.32717324E-02                    1_GWF-(6,53,50) -7.17972121E-08                   1_GWF-(7,173,33)
       1762         61         24 -6.61121367E-03                    1_GWF-(7,56,46) -6.28619165E-08                   1_GWF-(7,173,33)
       1763         62          1 -9.54903023E-02                    1_GWF-(4,15,26)  4.90916196E-06                    1_GWF-(7,68,11)
       1764         62          2     -0.10115919                     1_GWF-(5,32,7)  1.81612197E-06                    1_GWF-(8,13,29)
       1765         62          3     -0.18740528                     1_GWF-(5,30,8) -2.74373650E-06                    1_GWF-(8,69,10)
       1766         62          4     -0.12388291                    1_GWF-(4,15,30) -1.76972829E-06                     1_GWF-(9,28,6)
       1767         62          5     -0.12840654                    1_GWF-(6,21,24) -3.49358455E-06                    1_GWF-(8,69,10)
       1768         62          6     -0.12979220                    1_GWF-(4,24,22) -1.05458632E-06                     1_GWF-(9,29,9)
       1769         62          7     -0.13620090                    1_GWF-(7,31,27) -3.00497709E-06                    1_GWF-(8,69,11)
       1770         62          8     -0.18767302                    1_GWF-(2,33,31) -9.47440918E-07                    1_GWF-(8,20,24)
       1771         62          9  7.53901812E-02                    1_GWF-(6,21,24) -1.59882393E-06                    1_GWF-(8,70,12)
       1772         62         10     -0.13267466                    1_GWF-(4,37,30) -7.26304393E-07                    1_GWF-(8,24,15)
       1773         62         11 -9.32252666E-02                    1_GWF-(4,43,40)  6.52067385E-07                    1_GWF-(6,38,46)
       1774         62         12 -7.10297189E-02                    1_GWF-(1,42,41)  6.54659808E-07                    1_GWF-(6,36,45)
       1775         62         13 -6.80173607E-02                    1_GWF-(4,42,41)  5.32678209E-07                    1_GWF-(6,37,48)
       1776         62         14 -7.16352955E-02                    1_GWF-(8,38,48)  4.89654132E-07                    1_GWF-(6,50,48)
       1777         62         15 -2.40929234E-02                    1_GWF-(7,47,50)  6.56853769E-07                    1_GWF-(6,67,50)
       1778         62         16 -5.31756765E-02                    1_GWF-(7,48,49)  4.07908482E-07                    1_GWF-(6,61,48)
       1779         62         17 -4.66150195E-02                    1_GWF-(8,49,50)  3.41667927E-07                    1_GWF-(6,58,50)
       1780         62         18  1.11071346E-02                    1_GWF-(7,50,49)  3.76820182E-07                    1_GWF-(6,61,50)
       1781         62         19 -9.63011609E-02                    1_GWF-(7,58,51)  3.44710838E-07                    1_GWF-(6,60,50)
       1782         62         20 -3.67202827E-02                    1_GWF-(7,56,51)  1.56495783E-07                    1_GWF-(6,61,50)
       1783         62         21  1.68541546E-02                    1_GWF-(7,58,50)  1.67760575E-07                    1_GWF-(6,59,50)
       1784         62         22 -8.55306332E-02                    1_GWF-(7,58,51)  9.56960941E-08                    1_GWF-(6,61,48)
       1785         62         23 -9.42400752E-03                    1_GWF-(6,51,50) -5.24114824E-08                   1_GWF-(7,164,22)
       1786         63          1 -8.60152487E-02                    1_GWF-(4,15,26)  4.41667718E-06                    1_GWF-(7,68,11)
       1787         63          2 -9.11938571E-02                     1_GWF-(5,32,7)  1.63776024E-06                    1_GWF-(8,13,29)
       1788         63          3     -0.16924051                     1_GWF-(5,30,8) -2.47940697E-06                    1_GWF-(8,69,10)
       1789         63          4     -0.11079335                    1_GWF-(4,15,30) -1.59303693E-06                     1_GWF-(9,28,6)
       1790         63          5     -0.11559146                    1_GWF-(6,21,24) -3.15069203E-06                    1_GWF-(8,69,10)
       1791         63          6     -0.11417657                    1_GWF-(4,24,22) -9.34421056E-07                     1_GWF-(9,29,9)
       1792         63          7     -0.12411550                    1_GWF-(7,31,27) -2.71812107E-06                    1_GWF-(8,69,11)
       1793         63          8     -0.13800420                    1_GWF-(2,33,31) -7.89170570E-07                    1_GWF-(8,20,24)
       1794         63          9  2.50800839E-02                    1_GWF-(6,20,25) -1.57094367E-06                    1_GWF-(7,24,26)
       1795         63         10     -0.14751530                    1_GWF-(5,38,30) -9.04028155E-07                    1_GWF-(7,24,26)
       1796         63         11 -8.97492855E-02                    1_GWF-(8,42,35) -7.95280981E-07                    1_GWF-(7,24,26)
       1797         63         12 -6.57376262E-02                    1_GWF-(4,48,39) -7.71746277E-07                    1_GWF-(7,24,26)
       1798         63         13 -6.31356568E-02                    1_GWF-(2,47,40) -5.34207136E-07                    1_GWF-(7,27,24)
       1799         63         14 -5.85062596E-02                    1_GWF-(3,43,41)  4.65665285E-07                    1_GWF-(6,49,48)
       1800         63         15 -4.88585107E-03                    1_GWF-(7,47,50) -5.74633946E-07                    1_GWF-(7,28,23)
       1801         64          1 -8.32811144E-02                    1_GWF-(4,22,24) -5.13405560E-07                    1_GWF-(7,21,25)
       1802         64          2 -3.71714042E-02                    1_GWF-(7,47,49) -1.08870111E-06                   1_GWF-(6,161,51)
       1803         64          3 -8.31437448E-02                    1_GWF-(7,48,50) -1.14153471E-06                   1_GWF-(6,162,51)
       1804         64          4 -3.14722247E-02                    1_GWF-(6,51,50) -6.63736162E-07                   1_GWF-(6,162,51)
       1805         64          5 -1.55184820E-02                    1_GWF-(7,56,51)  2.95576240E-07                    1_GWF-(7,27,22)
       1806         64          6 -1.37375303E-02                    1_GWF-(6,62,51)  1.85378893E-07                    1_GWF-(7,29,28)
       1807         64          7 -1.06359241E-02                    1_GWF-(7,29,28)  2.93926858E-07                    1_GWF-(7,28,22)
       1808         64          8 -1.28122496E-02                    1_GWF-(6,62,51) -1.45901494E-07                   1_GWF-(6,160,51)
       1809         64          9 -1.55321908E-02                    1_GWF-(6,65,51)  1.26081115E-07                    1_GWF-(7,22,27)
       1810         64         10 -1.45786294E-02                    1_GWF-(7,66,51)  1.28773572E-07                    1_GWF-(7,22,27)
       1811         64         11 -1.23250295E-02                    1_GWF-(7,66,51)  1.11702089E-07                    1_GWF-(7,41,20)
       1812         64         12 -9.71933311E-03                    1_GWF-(8,66,50)  1.06604409E-07                    1_GWF-(7,41,20)
       1813         65          1 -6.75029394E-03                    1_GWF-(6,17,29)  1.19635804E-07                    1_GWF-(6,44,41)
 --------------------------------------------------------------------------------------------------------------------------------------


 UBDSV1 SAVING     FLOW-JA-FACE ON UNIT   1019 AT TIME STEP      1, STRESS PERIOD      1
 UBDSV06 SAVING       DATA-SPDIS IN MODEL MODFLOW          PACKAGE NPF             CONNECTED TO MODEL MODFLOW          PACKAGE NPF              ON UNIT   1019 AT TIME STEP      1, STRESS PERIOD      1
 UBDSV06 SAVING         DATA-SAT IN MODEL MODFLOW          PACKAGE NPF             CONNECTED TO MODEL MODFLOW          PACKAGE NPF              ON UNIT   1019 AT TIME STEP      1, STRESS PERIOD      1
 UBDSV06 SAVING              DRN IN MODEL MODFLOW          PACKAGE MODFLOW         CONNECTED TO MODEL MODFLOW          PACKAGE DRN-1            ON UNIT   1019 AT TIME STEP      1, STRESS PERIOD      1
 UBDSV06 SAVING              GHB IN MODEL MODFLOW          PACKAGE MODFLOW         CONNECTED TO MODEL MODFLOW          PACKAGE GHB-1            ON UNIT   1019 AT TIME STEP      1, STRESS PERIOD      1
 UBDSV06 SAVING              RCH IN MODEL MODFLOW          PACKAGE MODFLOW         CONNECTED TO MODEL MODFLOW          PACKAGE RCH-1            ON UNIT   1019 AT TIME STEP      1, STRESS PERIOD      1
 UBDSV06 SAVING              EVT IN MODEL MODFLOW          PACKAGE MODFLOW         CONNECTED TO MODEL MODFLOW          PACKAGE EVT-1            ON UNIT   1019 AT TIME STEP      1, STRESS PERIOD      1

 HEAD WILL BE SAVED ON UNIT 1020 AT END OF TIME STEP    1, STRESS PERIOD    1


  VOLUME BUDGET FOR ENTIRE MODEL AT END OF TIME STEP    1, STRESS PERIOD   1
  ---------------------------------------------------------------------------------------------------

     CUMULATIVE VOLUME      L**3       RATES FOR THIS TIME STEP      L**3/T          PACKAGE NAME    
     ------------------                 ------------------------                     ----------------

           IN:                                      IN:
           ---                                      ---
                 DRN =           0.0000                   DRN =           0.0000     DRN-1                            
                 GHB =           0.0000                   GHB =           0.0000     GHB-1                            
                 RCH =           0.7147                   RCH =           0.7147     RCH-1                            
                 EVT =           0.0000                   EVT =           0.0000     EVT-1                            

            TOTAL IN =           0.7147              TOTAL IN =           0.7147

          OUT:                                     OUT:
          ----                                     ----
                 DRN =       5.8209E-02                   DRN =       5.8209E-02     DRN-1                            
                 GHB =           0.5418                   GHB =           0.5418     GHB-1                            
                 RCH =           0.0000                   RCH =           0.0000     RCH-1                            
                 EVT =           0.1155                   EVT =           0.1155     EVT-1                            

           TOTAL OUT =           0.7155             TOTAL OUT =           0.7155

            IN - OUT =      -8.2278E-04              IN - OUT =      -8.2278E-04

 PERCENT DISCREPANCY =          -0.12     PERCENT DISCREPANCY =          -0.12




         TIME SUMMARY AT END OF TIME STEP    1 IN STRESS PERIOD    1
                    SECONDS     MINUTES      HOURS       DAYS        YEARS
                    -----------------------------------------------------------
   TIME STEP LENGTH  1.0000     1.66667E-02 2.77778E-04 1.15741E-05 3.16881E-08
 STRESS PERIOD TIME  1.0000     1.66667E-02 2.77778E-04 1.15741E-05 3.16881E-08
         TOTAL TIME  1.0000     1.66667E-02 2.77778E-04 1.15741E-05 3.16881E-08


end timestep

