                                   MODFLOW 6
                U.S. GEOLOGICAL SURVEY MODULAR HYDROLOGIC MODEL
                            VERSION 6.6.0 12/19/2024

   MODFLOW 6 compiled Dec 19 2024 21:59:25 with Intel(R) Fortran Intel(R) 64
   Compiler Classic for applications running on Intel(R) 64, Version 2021.7.0
                             Build 20220726_000000

This software has been approved for release by the U.S. Geological 
Survey (USGS). Although the software has been subjected to rigorous 
review, the USGS reserves the right to update the software as needed 
pursuant to further analysis and review. No warranty, expressed or 
implied, is made by the USGS or the U.S. Government as to the 
functionality of the software and related material nor shall the 
fact of release constitute any such warranty. Furthermore, the 
software is released on condition that neither the USGS nor the U.S. 
Government shall be held liable for any damages resulting from its 
authorized or unauthorized use. Also refer to the USGS Water 
Resources Software User Rights Notice for complete use, copyright, 
and distribution information.


As a work of the United States Government, this USGS product is 
in the public domain within the United States. You can copy, 
modify, distribute, and perform the work, even for commercial 
purposes, all without asking permission. Additionally, USGS 
waives copyright and related rights in the work worldwide 
through CC0 1.0 Universal Public Domain Dedication 
(https://creativecommons.org/publicdomain/zero/1.0/).

The following GNU Lesser General Public License (LGPL) libraries
are used in this USGS product:

    SPARSKIT version 2.0
      ilut, luson, and qsplit 
      (https://www-users.cse.umn.edu/~saad/software/SPARSKIT/)

    RCM - Reverse Cuthill McKee Ordering
      (https://people.math.sc.edu/Burkardt/f_src/rcm/rcm.html)

    BLAS - Basic Linear Algebra Subprograms Level 1
      (https://people.math.sc.edu/Burkardt/f_src/blas1_d/blas1_d.html)

    SPARSEKIT - Sparse Matrix Utility Package
      amux, dperm, dvperm, rperm, and cperm
      (https://people.sc.fsu.edu/~jburkardt/f77_src/sparsekit/sparsekit.html)

The following BSD-3 License libraries are used in this USGS product:

    Modern Fortran DAG Library
      Copyright (c) 2018, Jacob Williams
      All rights reserved.
      (https://github.com/jacobwilliams/daglib)

MODFLOW 6 compiler options: /Isrc\libmf6core.a.p /Isrc /I..\src
/Isrc\libmf6_external.a.p /MTd /nologo /warn:general /warn:truncated_source
/stand:f08 /Zi /traceback /O2 /fpe:0 /heap-arrays:0 /traceback /fpp
/Qdiag-disable:7416 /Qdiag-disable:7025 /Qdiag-disable:5268
/Qdiag-disable:10448 /Fdsrc\libmf6core.a.p\Utilities_compilerversion.F90.pdb
/module:src\libmf6core.a.p
/Fosrc/libmf6core.a.p/Utilities_compilerversion.F90.obj /c

System command used to initiate simulation:
C:\WRDAPP\mf6.6.0_win64\bin\mf6.exe

MODFLOW was compiled using uniform precision.

Real Variables
  KIND: 8
  TINY (smallest non-zero value):    2.225074-308
  HUGE (largest value):    1.797693+308
  PRECISION: 15
  SIZE IN BITS: 64

Integer Variables
  KIND: 4
  HUGE (largest value): 2147483647
  SIZE IN BITS: 32

Long Integer Variables
  KIND: 8
  HUGE (largest value): 9223372036854775807
  SIZE IN BITS: 64

Logical Variables
  KIND: 4
  SIZE IN BITS: 32
 

 OPENED mfsim.nam
 FILE TYPE:NAM6               UNIT 1001   STATUS:OLD                 
 FORMAT:FORMATTED              ACCESS:SEQUENTIAL          
 ACTION:READ                


 OPENED HillslopeModel_v1.tdis
 FILE TYPE:TDIS6              UNIT 1002   STATUS:OLD                 
 FORMAT:FORMATTED              ACCESS:SEQUENTIAL          
 ACTION:READ                

 Loading input for SIM/TDIS
 # TDIS file created on 5/22/2025 by ModelMuse version 5.3.1.0.
   String detected: TIME_UNITS = SECONDS
   Integer detected: NPER = 1
   Double precision 1D constant array detected: PERLEN = 1.000000000000000
   Integer 1D constant array detected: NSTP = 1
   Double precision 1D constant array detected: TSMULT = 1.000000000000000
 Loading input complete...

 OPENED HillslopeModel_v1.nam
 FILE TYPE:GWF6               UNIT 1003   STATUS:OLD                 
 FORMAT:FORMATTED              ACCESS:SEQUENTIAL          
 ACTION:READ                

 Loading input for MODFLOW/NAM
 # Name File for MODFLOW created on 5/22/2025 by ModelMuse Version 5.3.1.0
   String detected: LIST = HillslopeModel_v1.lst
   Keyword detected: NEWTON
   Keyword detected: UNDER_RELAXATION
   Keyword detected: PRINT_INPUT
   Keyword detected: SAVE_FLOWS
 Loading input complete...

 OPENED HillslopeModel_v1.dis
 FILE TYPE:DIS6               UNIT 1004   STATUS:OLD                 
 FORMAT:FORMATTED              ACCESS:SEQUENTIAL          
 ACTION:READ                

 Loading input for MODFLOW/DIS
 # Discretization File created on 5/22/2025 by ModelMuse version 5.3.1.0.
 # Upper left corner: (552489.972397074, 5312989.496592)
 # Lower left corner: (546753.648075191, 5296330.00109851)
 # Upper right corner: (559675.913571628, 5310515.17861812)
 # Lower right corner: (553939.589249745, 5293855.68312463)
 # Grid angle (in degrees counterclockwise): -19
 # Number of active cells = 56467.
   String detected: LENGTH_UNITS = METERS
   Double detected: XORIGIN = 546753.6480752000
   Double detected: YORIGIN = 5296330.001099000
   Double detected: ANGROT = -19.00000000000000
   Integer detected: NLAY = 10
   Integer detected: NROW = 174
   Integer detected: NCOL = 54
   Double precision 1D array detected: DELR ranges from 99.99999999953000 to 200.0000000005000
   Double precision 1D array detected: DELC ranges from 100.1129475078000 to 193.2172748344000
   Double precision 2D constant array detected: TOP = 200.0000000000000
   Double precision 3D array detected: BOTM ranges from -50.00000000000000 to 175.0000000000000
   Integer 3D array detected: IDOMAIN ranges from 0 to 1
 Loading input complete...

 OPENED HillslopeModel_v1.npf
 FILE TYPE:NPF6               UNIT 1005   STATUS:OLD                 
 FORMAT:FORMATTED              ACCESS:SEQUENTIAL          
 ACTION:READ                

 Loading input for MODFLOW/NPF
 # NPF: Node Property Flow package file created on 5/22/2025 by ModelMuse version 5.3.1.0.
   Keyword detected: SAVE_FLOWS
   Keyword detected: SAVE_SPECIFIC_DISCHARGE
   Keyword detected: SAVE_SATURATION
   Integer 1D constant array detected: ICELLTYPE = 1
   Double precision 1D constant array detected: K = .1000000000000000E-04
   Double precision 1D constant array detected: K33 = .1000000000000000E-05
   Double precision 1D constant array detected: K22 = .1000000000000000E-04
   Double precision 1D constant array detected: ANGLE1 = .000000000000000
   Double precision 1D constant array detected: ANGLE2 = .000000000000000
   Double precision 1D constant array detected: ANGLE3 = .000000000000000
 Loading input complete...

 OPENED HillslopeModel_v1.ic
 FILE TYPE:IC6                UNIT 1006   STATUS:OLD                 
 FORMAT:FORMATTED              ACCESS:SEQUENTIAL          
 ACTION:READ                

 Loading input for MODFLOW/IC
 # Initial Conditions Package file created on 5/22/2025 by ModelMuse version 5.3.1.0.
   Double precision 1D constant array detected: STRT = 200.0000000000000
 Loading input complete...

 OPENED HillslopeModel_v1.oc
 FILE TYPE:OC6       UNIT 1007   STATUS:OLD                 
 FORMAT:FORMATTED              ACCESS:SEQUENTIAL          
 ACTION:READ                


 OPENED HillslopeModel_v1.ob_gw
 FILE TYPE:OBS6      UNIT 1008   STATUS:OLD                 
 FORMAT:FORMATTED              ACCESS:SEQUENTIAL          
 ACTION:READ                


 OPENED HillslopeModel_v1.drn
 FILE TYPE:DRN6               UNIT 1009   STATUS:OLD                 
 FORMAT:FORMATTED              ACCESS:SEQUENTIAL          
 ACTION:READ                

 Loading input for MODFLOW/DRN-1
 # DRN: Drain package file created on 5/22/2025 by ModelMuse version 5.3.1.0.
    AUXILIARY  VARIABLE: IFACE           
    AUXILIARY  VARIABLE: DDRN            
   Keyword detected: BOUNDNAMES
   Keyword detected: PRINT_INPUT
   Keyword detected: SAVE_FLOWS
   String detected: AUXDEPTHNAME = DDRN
   Integer detected: MAXBOUND = 940
 Loading input complete...

 OPENED HillslopeModel_v1.ghb
 FILE TYPE:GHB6               UNIT 1010   STATUS:OLD                 
 FORMAT:FORMATTED              ACCESS:SEQUENTIAL          
 ACTION:READ                

 Loading input for MODFLOW/GHB-1
 # GHB: General-Head Boundary package file created on 5/22/2025 by ModelMuse version 5.3.1.0.
    AUXILIARY  VARIABLE: IFACE           
   Keyword detected: BOUNDNAMES
   Keyword detected: PRINT_INPUT
   Keyword detected: SAVE_FLOWS
   Integer detected: MAXBOUND = 1389
 Loading input complete...

 OPENED HillslopeModel_v1.rch
 FILE TYPE:RCH6               UNIT 1012   STATUS:OLD                 
 FORMAT:FORMATTED              ACCESS:SEQUENTIAL          
 ACTION:READ                

 Loading input for MODFLOW/RCH-1
 # RCH: Recharge package file created on 5/22/2025 by ModelMuse version 5.3.1.0.
    AUXILIARY  VARIABLE: IFACE           
   Keyword detected: PRINT_INPUT
   Keyword detected: SAVE_FLOWS
   Keyword detected: BOUNDNAMES
   Integer detected: MAXBOUND = 7375
 Loading input complete...

 OPENED HillslopeModel_v1.evt
 FILE TYPE:EVT6               UNIT 1014   STATUS:OLD                 
 FORMAT:FORMATTED              ACCESS:SEQUENTIAL          
 ACTION:READ                

 Loading input for MODFLOW/EVT-1
 # ETS: Evapotranspiration Segments package file created on 5/22/2025 by ModelMuse version 5.3.1.0.
    AUXILIARY  VARIABLE: IFACE           
   Keyword detected: PRINT_INPUT
   Keyword detected: SAVE_FLOWS
   Keyword detected: BOUNDNAMES
   Keyword detected: FIXED_CELL
   Integer detected: MAXBOUND = 5402
   Integer detected: NSEG = 1
 Loading input complete...

 READING SIMULATION OPTIONS
    SIMULATION WILL CONTINUE EVEN IF THERE IS NONCONVERGENCE.
    MAXIMUM NUMBER OF ERRORS THAT WILL BE STORED IS 1000
 END OF SIMULATION OPTIONS

 READING SIMULATION TIMING

 TDIS -- TEMPORAL DISCRETIZATION PACKAGE,
 VERSION 1 : 11/13/2014 - INPUT READ FROM MEMPATH: __INPUT__/SIM/TDIS                                
 PROCESSING TDIS OPTIONS
    SIMULATION TIME UNIT IS SECONDS
 END OF TDIS OPTIONS
 PROCESSING TDIS DIMENSIONS
    1 STRESS PERIOD(S) IN SIMULATION
 END OF TDIS DIMENSIONS
 PROCESSING TDIS PERIODDATA


 STRESS PERIOD     LENGTH       TIME STEPS     MULTIPLIER FOR DELT
 ----------------------------------------------------------------------------
        1         1.000000          1                    1.000
 END OF TDIS PERIODDATA
 END OF SIMULATION TIMING

 READING SIMULATION MODELS
    GWF6 model 1 will be created
 END OF SIMULATION MODELS

 READING SIMULATION EXCHANGES
 END OF SIMULATION EXCHANGES

 READING SOLUTIONGROUP

 Creating solution: SLN_1           

 OPENED HillslopeModel_v1.ims
 FILE TYPE:IMS   UNIT 1016   STATUS:OLD                 
 FORMAT:FORMATTED              ACCESS:SEQUENTIAL          
 ACTION:READ                

 END OF SOLUTIONGROUP

PROCESSING MODEL CONNECTIONS

 IMS -- ITERATIVE MODEL SOLUTION PACKAGE, VERSION 6, 4/28/2017
         INPUT READ FROM UNIT 1016
 # IMS: Iterative Model Solution file created on 5/22/2025 by ModelMuse version 5.3.1.0.

 PROCESSING IMS OPTIONS
 COMPLEX OPTION:
 DEFAULT SOLVER INPUT VALUES REFLECT STRONGLY NONLINEAR MODEL

 OPENED HillslopeModel_v1.OuterSolution.CSV
 FILE TYPE:CSV_OUTER_OUTPUT   UNIT 1021   STATUS:REPLACE             
 FORMAT:FORMATTED              ACCESS:SEQUENTIAL          
 ACTION:READWRITE           

    CSV OUTPUT WILL BE SAVED TO FILE: HillslopeModel_v1.OuterSolution.CSV
    OPENED ON UNIT:    1021

 OPENED HillslopeModel_v1.InnerSolution.CSV
 FILE TYPE:CSV_INNER_OUTPUT   UNIT 1022   STATUS:REPLACE             
 FORMAT:FORMATTED              ACCESS:SEQUENTIAL          
 ACTION:READWRITE           

    CSV OUTPUT WILL BE SAVED TO FILE: HillslopeModel_v1.InnerSolution.CSV
    OPENED ON UNIT:    1022
 ADAPTIVE TIME STEP SETTING FOUND.  FRACTION OF OUTER MAXIMUM USED TO INCREASE OR DECREASE TIME STEP SIZE IS .3333333333333000
 END OF IMS OPTIONS

 PROCESSING IMS NONLINEAR
 END OF IMS NONLINEAR DATA
 ***UNDER-RELAXATION WILL NOT BE USED***
 

 PROCESSING LINEAR DATA
 END OF LINEAR DATA
 ***IMS LINEAR SOLVER WILL BE USED***

 IMSLINEAR -- UNSTRUCTURED LINEAR SOLUTION PACKAGE, VERSION 8, 04/28/2017
 An asymmetric matrix will be solved

 OUTER ITERATION CONVERGENCE CRITERION    (DVCLOSE) =    0.100000E+00
 MAXIMUM NUMBER OF OUTER ITERATIONS        (MXITER) = 100
 SOLVER PRINTOUT INDEX                     (IPRIMS) = 2
 NONLINEAR ITERATION METHOD            (NONLINMETH) = 0
 LINEAR SOLUTION METHOD                   (LINMETH) = 1
 MAXIMUM NUMBER OF BACKTRACKS            (NUMTRACK) = 20
 BACKTRACKING TOLERANCE FACTOR               (BTOL) =    0.105000E+01
 BACKTRACKING REDUCTION FACTOR             (BREDUC) =    0.100000E+00
 BACKTRACKING RESIDUAL LIMIT              (RES_LIM) =    0.200000E-02

       SOLUTION BY THE BICONJUGATE-GRADIENT STABILIZED METHOD
 ------------------------------------------------------------------
 MAXIMUM OF 100 CALLS OF SOLUTION ROUTINE
 MAXIMUM OF 250 INTERNAL ITERATIONS PER CALL TO SOLUTION ROUTINE
 LINEAR ACCELERATION METHOD            = BCGS      
 MATRIX PRECONDITIONING TYPE           = INCOMPLETE LUT      
 MATRIX SCALING APPROACH               = NO SCALING          
 MATRIX REORDERING APPROACH            = ORIGINAL ORDERING        
 NUMBER OF ORTHOGONALIZATIONS          = 2
 HEAD CHANGE CRITERION FOR CLOSURE     =    0.10000E-01
 RESIDUAL CHANGE CRITERION FOR CLOSURE =    0.10000E+00
 RESIDUAL CONVERGENCE OPTION           = 0
 RESIDUAL CONVERGENCE NORM             = INFINITY NORM   
 RELAXATION FACTOR                     =    0.00000E+00
 NUMBER OF LEVELS                      =              5
 DROP TOLERANCE                        =    0.10000E-03


 
    Solving:  Stress period:     1    Time step:     1
 
1
 STRESS PERIOD NO. 1, LENGTH =   1.000000    
 ------------------------------------------
 NUMBER OF TIME STEPS = 1
 MULTIPLIER FOR DELT =     1.000

 IDP PERIOD 1 load for component: MODFLOW
 Loading input for MODFLOW/DRN-1
   Integer 2D array detected: CELLID ranges from 1 to 169
   Double precision 1D array detected: ELEV ranges from -.2499364912510000 to 174.2329559326000
   Double precision 1D constant array detected: COND = .1000000000000000E-02
   Double precision 2D constant array detected: AUX = .000000000000000
 Loading input complete...
 Loading input for MODFLOW/GHB-1
   Integer 2D array detected: CELLID ranges from 1 to 171
   Double precision 1D constant array detected: BHEAD = .000000000000000
   Double precision 1D constant array detected: COND = .1000000000000000E-02
   Double precision 2D constant array detected: AUX = .000000000000000
 Loading input complete...
 Loading input for MODFLOW/RCH-1
   Integer 2D array detected: CELLID ranges from 1 to 174
   Double precision 1D constant array detected: RECHARGE = .6849315068493000E-08
   Double precision 2D constant array detected: AUX = .000000000000000
 Loading input complete...
 Loading input for MODFLOW/EVT-1
   Integer 2D array detected: CELLID ranges from 1 to 174
   Double precision 1D array detected: SURFACE ranges from -.2499364912510000 to 195.2865295410000
   Double precision 1D constant array detected: RATE = .3600000000000000E-07
   Double precision 1D constant array detected: DEPTH = 2.000000000000000
   Double precision 2D constant array detected: AUX = .000000000000000
 Loading input complete...
 IDP component dynamic load complete...

 INITIAL TIME STEP SIZE =   1.000000    



 PSEUDO-TRANSIENT CONTINUATION WILL BE APPLIED TO MODEL 1 ("MODFLOW") DURING THIS TIME STEP

 SLN_1 OUTER ITERATION SUMMARY
 ----------------------------------------------------------------------------------------------------------------------------------------------------------------
                                OUTER      INNER  BACKTRACK  BACKTRACK        INCOMING        OUTGOING                    STEP   MAXIMUM CHANGE MODEL-(CELLID) OR
 OUTER ITERATION STEP       ITERATION  ITERATION       FLAG ITERATIONS        RESIDUAL        RESIDUAL  MAXIMUM CHANGE SUCCESS             MODEL-PACKAGE-(NUMBER)
 ----------------------------------------------------------------------------------------------------------------------------------------------------------------
 Backtracking                       1                     0          0       8.3150375       8.3150375                       *                                   
 Model                              1         27                                                            -198.16151                              1_GWF-(8,1,1)
 Backtracking                       2                     0          0  6.83115180E-02  6.83115180E-02                       *                                   
 Model                              2         28                                                            -122.90287                           1_GWF-(3,174,27)
 Backtracking                       3                     1          1  9.74518473E-02  6.17147950E-02                                                           
 Model                              3         30                                                            -108.96179                           1_GWF-(3,174,27)
 Backtracking                       4                     1          1  9.14907255E-02  5.58177413E-02                                                           
 Model                              4         27                                                            -90.283451                           1_GWF-(3,174,27)
 Backtracking                       5                     1          1  8.63867880E-02  5.04943105E-02                                                           
 Model                              5         26                                                            -64.561811                           1_GWF-(3,174,27)
 Backtracking                       6                     1          1  8.36472250E-02  4.58236699E-02                                                           
 Model                              6         24                                                            -47.595285                             1_GWF-(4,38,8)
 Backtracking                       7                     1          1  7.80668976E-02  4.14133157E-02                                                           
 Model                              7         19                                                            -45.832455                             1_GWF-(4,40,9)
 Backtracking                       8                     1          1  7.67517670E-02  3.74219975E-02                                                           
 Model                              8         25                                                            -44.165540                            1_GWF-(4,42,10)
 Backtracking                       9                     1          1  7.50023963E-02  3.39538548E-02                                                           
 Model                              9         26                                                            -40.334906                            1_GWF-(3,47,16)
 Backtracking                      10                     1          1  6.88797984E-02  3.08648608E-02                                                           
 Model                             10         23                                                            -39.388992                            1_GWF-(4,41,11)
 Backtracking                      11                     1          1  6.52717108E-02  2.80129650E-02                                                           
 Model                             11         27                                                            -38.229790                            1_GWF-(4,44,12)
 Backtracking                      12                     1          1  6.28306440E-02  2.54645555E-02                                                           
 Model                             12         26                                                            -37.266629                            1_GWF-(3,46,19)
 Backtracking                      13                     1          1  5.96261920E-02  2.30799244E-02                                                           
 Model                             13         25                                                            -35.789934                            1_GWF-(3,34,13)
 Backtracking                      14                     1          1  5.57508524E-02  2.09459863E-02                                                           
 Model                             14         31                                                            -33.485111                            1_GWF-(4,42,14)
 Backtracking                      15                     1          1  5.27222191E-02  1.90283996E-02                                                           
 Model                             15         21                                                            -30.991359                            1_GWF-(3,50,15)
 Backtracking                      16                     1          1  4.93636460E-02  1.73716064E-02                                                           
 Model                             16         25                                                            -31.061528                            1_GWF-(2,44,24)
 Backtracking                      17                     1          1  4.53185585E-02  1.57964123E-02                                                           
 Model                             17         32                                                            -31.295358                            1_GWF-(3,81,16)
 Backtracking                      18                     1          1  4.33681220E-02  1.43479627E-02                                                           
 Model                             18         34                                                            -30.037063                            1_GWF-(2,46,17)
 Backtracking                      19                     1          1  4.11668060E-02  1.30682667E-02                                                           
 Model                             19         35                                                            -29.052125                            1_GWF-(2,45,28)
 Backtracking                      20                     1          1  3.93084298E-02  1.19143717E-02                                                           
 Model                             20         36                                                            -28.940491                            1_GWF-(2,43,30)
 Backtracking                      21                     1          1  3.75598138E-02  1.08208860E-02                                                           
 Model                             21         33                                                            -28.108321                            1_GWF-(2,45,31)
 Backtracking                      22                     1          1  3.53925838E-02  9.84911996E-03                                                           
 Model                             22         30                                                            -26.816468                            1_GWF-(3,39,21)
 Backtracking                      23                     1          1  3.27960690E-02  8.97918358E-03                                                           
 Model                             23         28                                                            -26.036484                            1_GWF-(3,40,22)
 Backtracking                      24                     1          1  2.94150927E-02  8.18939214E-03                                                           
 Model                             24         31                                                            -25.091386                            1_GWF-(2,41,23)
 Backtracking                      25                     1          1  2.72213178E-02  7.53021672E-03                                                           
 Model                             25         31                                                            -24.674930                            1_GWF-(2,43,24)
 Backtracking                      26                     1          1  2.53096870E-02  6.90154134E-03                                                           
 Model                             26         39                                                            -25.651056                            1_GWF-(2,33,27)
 Backtracking                      27                     1          1  2.38294489E-02  6.33287302E-03                                                           
 Model                             27         37                                                            -24.414486                            1_GWF-(2,34,28)
 Backtracking                      28                     1          1  2.16360494E-02  5.82630782E-03                                                           
 Model                             28         33                                                            -23.671026                            1_GWF-(2,35,29)
 Backtracking                      29                     1          1  2.03858623E-02  5.33118296E-03                                                           
 Model                             29         28                                                            -21.594852                            1_GWF-(2,34,31)
 Backtracking                      30                     1          1  1.83858708E-02  4.85395933E-03                                                           
 Model                             30         38                                                            -20.155411                            1_GWF-(2,34,32)
 Backtracking                      31                     1          1  1.73695884E-02  4.43380490E-03                                                           
 Model                             31         28                                                            -19.864163                            1_GWF-(3,20,28)
 Backtracking                      32                     1          1  1.57271498E-02  4.03296673E-03                                                           
 Model                             32         35                                                            -18.603147                            1_GWF-(3,20,29)
 Backtracking                      33                     1          1  1.42998074E-02  3.68725770E-03                                                           
 Model                             33         37                                                            -16.929001                            1_GWF-(2,43,49)
 Backtracking                      34                     1          1  1.23502356E-02  3.34427076E-03                                                           
 Model                             34         38                                                            -15.666661                            1_GWF-(4,22,39)
 Backtracking                      35                     1          1  1.10875696E-02  3.03040922E-03                                                           
 Model                             35         38                                                            -14.379578                            1_GWF-(3,25,28)
 Backtracking                      36                     1          1  9.84189700E-03  2.74138427E-03                                                           
 Model                             36         38                                                            -13.154742                            1_GWF-(2,26,39)
 Backtracking                      37                     1          1  8.99113171E-03  2.50544339E-03                                                           
 Model                             37         33                                                            -12.103607                            1_GWF-(2,63,48)
 Backtracking                      38                     1          1  7.84857225E-03  2.26954161E-03                                                           
 Model                             38         39                                                            -11.141270                            1_GWF-(2,63,48)
 Backtracking                      39                     1          1  7.10449881E-03  2.05440596E-03                                                           
 Model                             39         35                                                            -10.091306                            1_GWF-(2,23,32)
 Backtracking                      40                     1          1  6.43080201E-03  1.85672810E-03                                                           
 Model                             40         36                                                            -9.2988169                            1_GWF-(3,32,27)
 Backtracking                      41                     1          1  5.79845031E-03  1.68315673E-03                                                           
 Model                             41         34                                                            -8.4011020                            1_GWF-(2,33,27)
 Backtracking                      42                     1          1  5.08643704E-03  1.52052766E-03                                                           
 Model                             42         39                                                            -7.7991330                            1_GWF-(2,33,27)
 Backtracking                      43                     1          1  4.64524545E-03  1.37364134E-03                                                           
 Model                             43         28                                                            -6.8940351                            1_GWF-(2,33,28)
 Backtracking                      44                     1          1  3.94389682E-03  1.24052330E-03                                                           
 Model                             44         17                                                            -5.5897203                            1_GWF-(2,34,28)
 Backtracking                      45                     1          1  3.22059861E-03  1.11927126E-03                                                           
 Model                             45         39                                                            -6.0055868                            1_GWF-(2,63,48)
 Backtracking                      46                     1          1  3.11625123E-03  1.00962221E-03                                                           
 Model                             46         27                                                            -5.2115101                            1_GWF-(2,63,48)
 Backtracking                      47                     1          1  2.73386156E-03  9.10332801E-04                                                           
 Model                             47         32                                                            -4.8848509                            1_GWF-(2,63,48)
 Backtracking                      48                     1          1  2.43685019E-03  8.24001228E-04                                                           
 Model                             48         20                                                            -4.0389936                            1_GWF-(2,34,29)
 Backtracking                      49                     1          1  2.09030835E-03  7.43135803E-04                                                           
 Model                             49         23                                                            -3.8403153                            1_GWF-(2,63,48)
 Backtracking                      50                     1          1  1.91992509E-03  6.69755857E-04                                                           
 Model                             50         19                                                            -3.3681319                            1_GWF-(2,34,29)
 Backtracking                      51                     1          1  1.65451782E-03  6.04441435E-04                                                           
 Model                             51         28                                                            -3.3857553                            1_GWF-(2,63,48)
 Backtracking                      52                     1          1  1.53720882E-03  5.45981269E-04                                                           
 Model                             52         27                                                            -3.0692674                            1_GWF-(2,63,48)
 Backtracking                      53                     1          1  1.30647190E-03  4.92170486E-04                                                           
 Model                             53         22                                                            -2.6408973                            1_GWF-(2,63,48)
 Backtracking                      54                     1          1  1.07312265E-03  4.43790622E-04                                                           
 Model                             54         19                                                            -2.3254364                            1_GWF-(2,35,30)
 Backtracking                      55                     1          1  8.85707617E-04  3.99935202E-04                                                           
 Model                             55         27                                                            -2.3604107                            1_GWF-(2,63,48)
 Backtracking                      56                     1          1  7.45053323E-04  3.59919593E-04                                                           
 Model                             56         29                                                            -2.1536364                            1_GWF-(2,63,48)
 Backtracking                      57                     1          1  6.44960793E-04  3.24440288E-04                                                           
 Model                             57         21                                                            -1.7890504                            1_GWF-(2,63,48)
 Backtracking                      58                     1          1  5.37979335E-04  2.92156337E-04                                                           
 Model                             58         21                                                            -1.6054518                            1_GWF-(2,35,30)
 Backtracking                      59                     1          1  4.96915082E-04  2.63202875E-04                                                           
 Model                             59         19                                                            -1.4481950                            1_GWF-(2,35,30)
 Backtracking                      60                     1          1  4.18416433E-04  2.37106356E-04                                                           
 Model                             60         15                                                            -1.2957926                            1_GWF-(2,35,30)
 Backtracking                      61                     1          1  3.40682401E-04  2.13552272E-04                                                           
 Model                             61         24                                                            -1.3681931                            1_GWF-(2,63,48)
 Backtracking                      62                     1          1  3.27876628E-04  1.92252098E-04                                                           
 Model                             62         23                                                            -1.2352808                            1_GWF-(2,63,48)
 Backtracking                      63                     1          1  2.95113429E-04  1.73123888E-04                                                           
 Model                             63         15                                                           -0.95867361                            1_GWF-(3,20,29)
 Backtracking                      64                     4          0  2.42996202E-04  2.42996202E-04                       *                                   
 Model                             64         12                                                           -0.24563066                            1_GWF-(7,56,50)
 Backtracking                      65                     0          0  9.44546364E-06  9.44546364E-06                       *                                   
 Model                             65          1                                                       -6.75029394E-03       *                    1_GWF-(6,17,29)
 ----------------------------------------------------------------------------------------------------------------------------------------------------------------


 65 CALLS TO NUMERICAL SOLUTION IN TIME STEP 1 STRESS PERIOD 1
 1813 TOTAL ITERATIONS

 SLN_1 INNER ITERATION SUMMARY
 --------------------------------------------------------------------------------------------------------------------------------------
      TOTAL      OUTER      INNER                                                            MAXIMUM                                   
  ITERATION  ITERATION  ITERATION  MAXIMUM CHANGE      MAXIMUM CHANGE MODEL-(CELLID)        RESIDUAL    MAXIMUM RESIDUAL MODEL-(CELLID)
 --------------------------------------------------------------------------------------------------------------------------------------
          1          1          1      -196.12454                      1_GWF-(8,2,2)  1.80903982E-02                    1_GWF-(7,68,11)
          2          1          2      -54.613818                     1_GWF-(9,25,2)  3.41070194E-03                     1_GWF-(7,70,7)
          3          1          3      -32.711940                     1_GWF-(7,73,8)  1.80711861E-03                    1_GWF-(6,19,15)
          4          1          4      -37.409113                    1_GWF-(6,13,20)  7.72313867E-04                   1_GWF-(7,134,19)
          5          1          5      -16.311562                    1_GWF-(4,92,12)  4.79999597E-04                   1_GWF-(4,103,22)
          6          1          6      -12.181248                   1_GWF-(5,131,24) -3.14577949E-04                     1_GWF-(6,70,8)
          7          1          7      -7.5015114                   1_GWF-(4,158,17)  2.08900773E-04                   1_GWF-(5,155,25)
          8          1          8      -6.2357102                   1_GWF-(5,159,19)  1.65812178E-04                   1_GWF-(4,143,42)
          9          1          9      -4.4325991                   1_GWF-(5,160,22)  1.19631321E-04                   1_GWF-(4,165,29)
         10          1         10      -3.8800982                   1_GWF-(5,160,25)  1.02593254E-04                   1_GWF-(4,165,29)
         11          1         11      -3.1605651                   1_GWF-(5,162,27)  7.96871283E-05                   1_GWF-(4,165,29)
         12          1         12      -18.330848                   1_GWF-(5,164,29)  1.27088139E-04                    1_GWF-(4,23,18)
         13          1         13       11.883227                   1_GWF-(5,162,28)  2.25498814E-05                   1_GWF-(5,172,39)
         14          1         14     -0.92344120                   1_GWF-(5,172,38) -1.64188023E-05                    1_GWF-(3,86,40)
         15          1         15     -0.44176177                   1_GWF-(5,167,25)  1.11094880E-05                   1_GWF-(4,165,29)
         16          1         16     -0.37915543                   1_GWF-(5,167,27)  8.33562147E-06                   1_GWF-(4,165,29)
         17          1         17     -0.28648151                   1_GWF-(5,168,27)  6.30679485E-06                   1_GWF-(4,173,28)
         18          1         18     -0.25969835                   1_GWF-(5,169,28)  4.53697210E-06                   1_GWF-(4,173,28)
         19          1         19     -0.23782831                   1_GWF-(5,170,29)  2.82130975E-06                   1_GWF-(4,173,28)
         20          1         20 -9.36412887E-02                   1_GWF-(5,172,31) -2.46927442E-06                    1_GWF-(3,90,43)
         21          1         21     -0.11321690                   1_GWF-(5,170,29)  1.20513577E-06                   1_GWF-(4,173,28)
         22          1         22 -7.25351872E-02                   1_GWF-(5,170,30)  6.78675382E-07                   1_GWF-(4,173,28)
         23          1         23 -3.80616215E-02                   1_GWF-(5,170,29)  3.97149503E-07                   1_GWF-(4,173,28)
         24          1         24 -2.31001863E-02                   1_GWF-(5,170,29)  2.21331633E-07                   1_GWF-(4,173,28)
         25          1         25 -1.10976629E-02                   1_GWF-(5,170,29)  1.36452597E-07                   1_GWF-(4,173,28)
         26          1         26 -1.04109323E-02                   1_GWF-(5,171,28) -6.82850152E-08                   1_GWF-(3,123,46)
         27          1         27 -4.58606164E-03                   1_GWF-(5,170,28)  1.99236655E-08                   1_GWF-(4,173,28)
         28          2          1      -16.889901                    1_GWF-(3,20,28)  6.16241218E-04                   1_GWF-(7,149,13)
         29          2          2      -19.109204                     1_GWF-(5,97,9) -5.06108316E-04                     1_GWF-(9,25,2)
         30          2          3      -20.188470                    1_GWF-(4,94,11) -5.74863591E-04                     1_GWF-(9,25,2)
         31          2          4      -13.839715                   1_GWF-(4,158,16) -2.62975906E-04                     1_GWF-(6,27,9)
         32          2          5       2.5301158                   1_GWF-(4,154,14) -3.64411817E-04                     1_GWF-(8,25,3)
         33          2          6      -20.584788                   1_GWF-(4,161,22)  2.36577743E-04                   1_GWF-(4,173,28)
         34          2          7      -10.467183                   1_GWF-(5,163,26)  2.05791984E-04                   1_GWF-(4,165,29)
         35          2          8      -9.6045019                   1_GWF-(4,166,28)  1.87426060E-04                   1_GWF-(4,173,28)
         36          2          9      -10.374666                   1_GWF-(4,170,30)  1.65517596E-04                   1_GWF-(4,173,28)
         37          2         10       18.959919                   1_GWF-(4,173,30)  2.26469109E-04                   1_GWF-(4,173,28)
         38          2         11      -47.441469                   1_GWF-(4,174,30)  7.20593434E-05                   1_GWF-(4,165,29)
         39          2         12      -5.4387170                   1_GWF-(5,171,27)  6.06060175E-05                   1_GWF-(4,165,29)
         40          2         13      -5.2075194                   1_GWF-(5,170,27)  4.76164343E-05                   1_GWF-(4,165,29)
         41          2         14      -4.3185972                   1_GWF-(5,170,27)  3.72236278E-05                   1_GWF-(4,173,28)
         42          2         15      -3.7399542                   1_GWF-(5,171,28)  2.79584156E-05                   1_GWF-(4,173,28)
         43          2         16      -3.8668380                   1_GWF-(4,172,28)  1.76127457E-05                   1_GWF-(4,173,28)
         44          2         17      0.25187205                   1_GWF-(5,169,26)  1.89259897E-05                   1_GWF-(4,173,28)
         45          2         18      -3.5504730                   1_GWF-(4,173,30)  7.81020256E-06                   1_GWF-(3,100,44)
         46          2         19      -1.0330868                   1_GWF-(4,173,29)  4.51699300E-06                   1_GWF-(4,173,28)
         47          2         20     -0.92165094                   1_GWF-(4,173,29)  1.84493180E-06                   1_GWF-(4,173,28)
         48          2         21  9.53563042E-02                   1_GWF-(5,168,43)  1.25154936E-06                   1_GWF-(4,165,29)
         49          2         22     -0.22158881                   1_GWF-(4,171,27)  7.02611376E-07                   1_GWF-(4,165,29)
         50          2         23 -9.74886997E-02                   1_GWF-(5,171,27)  4.33561061E-07                   1_GWF-(4,165,29)
         51          2         24 -6.27516143E-02                   1_GWF-(5,170,27)  2.40468619E-07                   1_GWF-(4,173,28)
         52          2         25      0.31356007                   1_GWF-(5,171,26)  1.15162699E-06                   1_GWF-(4,165,29)
         53          2         26     -0.36662721                   1_GWF-(5,171,26)  1.09351640E-07                   1_GWF-(5,164,25)
         54          2         27 -1.15152236E-02                   1_GWF-(5,170,26)  7.21855402E-08                   1_GWF-(4,165,28)
         55          2         28 -8.09924223E-03                   1_GWF-(5,169,25)  4.69605892E-08                   1_GWF-(5,170,17)
         56          3          1      -15.760410                    1_GWF-(3,20,28)  5.55657264E-04                   1_GWF-(7,149,13)
         57          3          2      -17.158116                     1_GWF-(5,62,7) -4.63700499E-04                     1_GWF-(9,25,2)
         58          3          3      -17.887874                   1_GWF-(4,154,14) -5.25471482E-04                     1_GWF-(9,25,2)
         59          3          4      -12.230748                   1_GWF-(4,157,14) -2.62854051E-04                    1_GWF-(6,11,26)
         60          3          5       2.3185408                    1_GWF-(5,10,25) -3.11015301E-04                     1_GWF-(8,25,3)
         61          3          6      -14.774036                   1_GWF-(4,162,22)  2.08038506E-04                   1_GWF-(4,173,28)
         62          3          7      -8.8750470                   1_GWF-(5,164,26)  1.84634677E-04                   1_GWF-(4,165,29)
         63          3          8      -8.0695951                   1_GWF-(5,167,28)  1.69650650E-04                   1_GWF-(4,173,28)
         64          3          9      -9.0744107                   1_GWF-(4,170,30)  1.47849329E-04                   1_GWF-(4,173,28)
         65          3         10      -21.677039                   1_GWF-(3,172,30)  9.12277342E-05                   1_GWF-(4,173,28)
         66          3         11       5.5329481                    1_GWF-(8,44,21)  6.75519882E-05                   1_GWF-(4,165,28)
         67          3         12      -5.8635112                   1_GWF-(4,173,28)  5.86308408E-05                   1_GWF-(4,165,29)
         68          3         13      -5.2936138                   1_GWF-(5,171,28)  4.59042644E-05                   1_GWF-(4,165,29)
         69          3         14      -4.3768408                   1_GWF-(5,170,28)  3.19558720E-05                   1_GWF-(4,165,29)
         70          3         15      -3.7009897                   1_GWF-(5,171,29)  2.30689945E-05                   1_GWF-(4,173,28)
         71          3         16      -2.9046700                   1_GWF-(4,172,29)  1.51951441E-05                   1_GWF-(4,173,28)
         72          3         17      -1.8322333                   1_GWF-(4,173,29)  9.84061597E-06                   1_GWF-(4,173,28)
         73          3         18     -0.96055381                   1_GWF-(4,173,30)  6.23084743E-06                   1_GWF-(4,173,28)
         74          3         19     -0.77804594                   1_GWF-(4,174,29)  4.03072352E-06                   1_GWF-(4,173,28)
         75          3         20      -2.8587343                   1_GWF-(4,173,29) -5.49640372E-06                   1_GWF-(5,173,33)
         76          3         21       2.0872129                   1_GWF-(4,173,30)  1.53466927E-06                   1_GWF-(4,173,28)
         77          3         22     -0.18743302                   1_GWF-(5,172,26)  9.29735478E-07                   1_GWF-(4,173,28)
         78          3         23     -0.16469065                   1_GWF-(5,172,26) -4.36131250E-07                   1_GWF-(5,166,47)
         79          3         24  3.58924941E-02                   1_GWF-(5,171,44)  3.84214427E-07                   1_GWF-(4,165,29)
         80          3         25 -3.69952307E-02                   1_GWF-(5,168,25)  2.54058732E-07                   1_GWF-(5,171,17)
         81          3         26 -2.45952887E-02                   1_GWF-(5,171,24)  2.05276817E-07                    1_GWF-(3,65,51)
         82          3         27 -1.66006610E-02                   1_GWF-(5,171,24) -1.42701841E-07                   1_GWF-(4,144,49)
         83          3         28 -1.51299558E-02                   1_GWF-(5,171,24) -9.35498873E-08                   1_GWF-(4,144,49)
         84          3         29 -2.11190586E-02                   1_GWF-(5,171,23) -2.56284201E-08                   1_GWF-(5,166,47)
         85          3         30  6.38103137E-03                   1_GWF-(5,172,26)  2.77889994E-08                   1_GWF-(5,171,17)
         86          4          1      -15.569128                   1_GWF-(4,113,16)  4.96176921E-04                   1_GWF-(7,149,13)
         87          4          2      -16.252585                   1_GWF-(5,125,19) -4.23477789E-04                     1_GWF-(9,25,2)
         88          4          3      -18.600328                    1_GWF-(4,28,10) -4.66814232E-04                     1_GWF-(9,25,2)
         89          4          4      -10.288108                    1_GWF-(3,36,12) -2.28622777E-04                    1_GWF-(6,11,26)
         90          4          5       1.8148988                     1_GWF-(4,29,9) -2.64767044E-04                     1_GWF-(8,25,3)
         91          4          6      -14.325992                   1_GWF-(4,162,23)  1.80863765E-04                   1_GWF-(4,173,28)
         92          4          7      -7.2667741                   1_GWF-(4,165,27)  1.55328820E-04                   1_GWF-(4,173,28)
         93          4          8      -6.8005719                   1_GWF-(4,168,29)  1.40028241E-04                   1_GWF-(4,173,28)
         94          4          9      -7.2072351                   1_GWF-(4,171,30)  1.21934527E-04                   1_GWF-(4,173,28)
         95          4         10      -9.9978236                   1_GWF-(3,174,30)  9.27066816E-05                   1_GWF-(4,173,28)
         96          4         11      -7.3814550                   1_GWF-(3,174,30)  6.83500071E-05                   1_GWF-(4,173,28)
         97          4         12      -4.6267584                   1_GWF-(5,173,29)  4.85133474E-05                   1_GWF-(4,165,29)
         98          4         13      -4.2853920                   1_GWF-(4,173,29)  3.73443611E-05                   1_GWF-(4,173,28)
         99          4         14      -3.5248801                   1_GWF-(3,173,28)  2.86488487E-05                   1_GWF-(4,173,28)
        100          4         15      -2.9907818                   1_GWF-(4,173,29)  1.98011105E-05                   1_GWF-(4,173,28)
        101          4         16      -2.7713805                   1_GWF-(4,173,29)  1.21117181E-05                   1_GWF-(4,173,28)
        102          4         17      -3.1949557                   1_GWF-(4,174,29)  3.20807611E-06                   1_GWF-(4,173,28)
        103          4         18      0.41587797                   1_GWF-(4,168,29)  4.52521637E-06                   1_GWF-(4,165,29)
        104          4         19     -0.61774678                   1_GWF-(3,172,27)  2.65038504E-06                   1_GWF-(4,165,29)
        105          4         20     -0.34493109                   1_GWF-(3,172,27)  1.61042292E-06                   1_GWF-(4,173,28)
        106          4         21     -0.26330496                   1_GWF-(3,172,27)  9.10828541E-07                   1_GWF-(4,173,28)
        107          4         22     -0.16060155                   1_GWF-(3,172,27)  4.60978717E-07                   1_GWF-(4,173,28)
        108          4         23  8.40554983E-02                   1_GWF-(3,172,27)  7.01103896E-07                   1_GWF-(4,173,28)
        109          4         24     -0.19212090                   1_GWF-(3,172,27)  1.51865209E-07                   1_GWF-(4,165,29)
        110          4         25 -2.41256477E-02                   1_GWF-(3,172,27)  8.11014681E-08                   1_GWF-(4,165,29)
        111          4         26 -1.09270441E-02                   1_GWF-(3,171,27)  4.99230688E-08                   1_GWF-(4,173,28)
        112          4         27 -6.08829630E-03                   1_GWF-(5,171,26)  3.29562636E-08                   1_GWF-(4,173,28)
        113          5          1      -13.217448                    1_GWF-(4,15,26)  4.40798580E-04                   1_GWF-(7,149,13)
        114          5          2      -15.601365                    1_GWF-(4,97,10) -3.71495591E-04                     1_GWF-(9,25,2)
        115          5          3      -17.752439                    1_GWF-(4,29,10) -4.08759330E-04                     1_GWF-(9,25,2)
        116          5          4      -9.3912679                    1_GWF-(3,37,13) -2.00644903E-04                    1_GWF-(6,11,26)
        117          5          5       2.3284645                    1_GWF-(3,40,13) -2.41468003E-04                    1_GWF-(5,14,29)
        118          5          6      -12.802247                   1_GWF-(5,163,24) -1.56717908E-04                     1_GWF-(8,25,3)
        119          5          7      -5.5317571                   1_GWF-(4,168,28)  1.09392026E-04                   1_GWF-(5,173,33)
        120          5          8      -4.9435312                   1_GWF-(3,171,29)  9.74004273E-05                   1_GWF-(5,173,33)
        121          5          9      -4.9760549                   1_GWF-(3,174,30)  8.20814695E-05                   1_GWF-(5,173,33)
        122          5         10      -8.3119660                   1_GWF-(3,174,30)  5.17068459E-05                   1_GWF-(5,173,33)
        123          5         11      -4.4773839                   1_GWF-(3,174,31)  3.30511887E-05                   1_GWF-(4,165,29)
        124          5         12      -1.7709318                   1_GWF-(5,169,28)  2.41274128E-05                   1_GWF-(4,165,29)
        125          5         13      -1.4088415                   1_GWF-(5,170,28)  1.93257188E-05                   1_GWF-(5,173,28)
        126          5         14      -1.2424695                   1_GWF-(3,172,27)  1.66410078E-05                   1_GWF-(5,173,33)
        127          5         15      -1.1845161                   1_GWF-(3,173,28)  1.38950270E-05                   1_GWF-(5,173,33)
        128          5         16      -1.1020483                   1_GWF-(3,173,29)  1.06270916E-05                   1_GWF-(5,173,33)
        129          5         17     -0.88976128                   1_GWF-(3,174,29)  7.74638618E-06                   1_GWF-(5,173,33)
        130          5         18     -0.66702337                   1_GWF-(3,174,30)  5.40921281E-06                   1_GWF-(5,173,33)
        131          5         19     -0.49603717                   1_GWF-(3,174,30)  3.61960326E-06                   1_GWF-(5,173,33)
        132          5         20     -0.33998389                   1_GWF-(3,174,30)  2.37321935E-06                   1_GWF-(5,173,33)
        133          5         21     -0.26452773                   1_GWF-(3,174,29)  1.42149461E-06                   1_GWF-(5,173,33)
        134          5         22     -0.23794759                   1_GWF-(3,174,30)  6.33672467E-07                   1_GWF-(5,173,28)
        135          5         23  3.42572637E-02                    1_GWF-(9,44,26)  7.22560819E-07                   1_GWF-(4,101,42)
        136          5         24 -8.39499962E-02                   1_GWF-(3,174,29)  2.93759681E-07                   1_GWF-(5,173,33)
        137          5         25 -4.63808880E-02                   1_GWF-(3,174,29) -1.51237559E-07                    1_GWF-(4,46,19)
        138          5         26  3.49179007E-03                   1_GWF-(4,173,29) -2.17962879E-07                    1_GWF-(4,45,15)
        139          6          1      -12.138973                    1_GWF-(3,20,28)  4.07658310E-04                     1_GWF-(8,27,4)
        140          6          2      -14.370242                     1_GWF-(5,38,5) -3.26143129E-04                     1_GWF-(9,25,2)
        141          6          3      -16.130047                     1_GWF-(4,32,8) -3.60201209E-04                     1_GWF-(9,25,2)
        142          6          4      -8.6585143                    1_GWF-(3,38,14) -1.82646147E-04                    1_GWF-(6,11,26)
        143          6          5       1.4011491                     1_GWF-(5,26,9) -2.30270432E-04                    1_GWF-(5,14,29)
        144          6          6      -8.7366903                    1_GWF-(2,45,21) -1.18601155E-04                     1_GWF-(8,25,3)
        145          6          7      -3.7230209                    1_GWF-(2,45,21)  4.84847909E-05                    1_GWF-(4,44,26)
        146          6          8      -2.7192076                    1_GWF-(2,46,21)  3.68414809E-05                    1_GWF-(4,46,28)
        147          6          9      -2.3086633                    1_GWF-(8,45,26)  2.66187539E-05                    1_GWF-(3,51,30)
        148          6         10      -2.1069816                    1_GWF-(8,46,27)  1.66718308E-05                    1_GWF-(3,52,30)
        149          6         11      -1.2619474                    1_GWF-(8,51,31) -2.15645959E-05                    1_GWF-(4,97,39)
        150          6         12     -0.59174903                    1_GWF-(2,51,22)  6.62738775E-06                    1_GWF-(3,56,29)
        151          6         13     -0.42287746                    1_GWF-(2,51,22) -6.15219890E-06                    1_GWF-(4,96,39)
        152          6         14     -0.22633377                    1_GWF-(2,51,22)  3.15668444E-06                    1_GWF-(4,49,22)
        153          6         15     -0.21124513                    1_GWF-(2,51,22) -3.91451071E-06                    1_GWF-(4,98,40)
        154          6         16     -0.13683042                    1_GWF-(2,51,22) -1.93488883E-06                   1_GWF-(4,105,40)
        155          6         17     -0.13033036                    1_GWF-(2,51,22) -2.24850085E-06                   1_GWF-(4,101,41)
        156          6         18 -7.68576982E-02                    1_GWF-(2,51,22) -1.03184602E-06                   1_GWF-(4,105,40)
        157          6         19 -6.76943405E-02                    1_GWF-(2,51,22)  8.20639417E-07                    1_GWF-(5,41,13)
        158          6         20 -4.42677661E-02                    1_GWF-(2,47,21)  4.99401242E-07                    1_GWF-(5,43,13)
        159          6         21 -9.39550238E-02                    1_GWF-(2,45,21)  2.27666202E-07                    1_GWF-(4,43,15)
        160          6         22  3.13770513E-02                    1_GWF-(2,45,21)  5.89277590E-07                    1_GWF-(4,43,15)
        161          6         23 -4.09791476E-02                    1_GWF-(8,44,25)  1.17297357E-07                   1_GWF-(4,101,44)
        162          6         24 -3.45753672E-03                    1_GWF-(9,49,27)  3.98534019E-08                    1_GWF-(3,54,30)
        163          7          1      -11.813633                    1_GWF-(3,20,28)  3.78403012E-04                   1_GWF-(7,149,13)
        164          7          2      -13.740314                     1_GWF-(5,38,5) -2.99177566E-04                     1_GWF-(9,25,2)
        165          7          3      -16.301234                     1_GWF-(5,26,9) -3.35192588E-04                     1_GWF-(9,25,2)
        166          7          4      -8.6826531                   1_GWF-(4,157,15) -1.74037551E-04                    1_GWF-(6,11,26)
        167          7          5       2.6024274                    1_GWF-(5,10,25) -2.20677683E-04                    1_GWF-(5,14,29)
        168          7          6      -6.7173198                    1_GWF-(2,44,22) -1.05193571E-04                    1_GWF-(5,14,29)
        169          7          7      -4.1289622                    1_GWF-(2,44,22)  5.33439194E-05                    1_GWF-(4,43,26)
        170          7          8      -3.0985639                    1_GWF-(2,44,22)  4.16274127E-05                    1_GWF-(4,47,29)
        171          7          9      -2.6890249                    1_GWF-(2,46,27)  3.00259677E-05                    1_GWF-(3,47,29)
        172          7         10       3.8315895                    1_GWF-(2,46,27)  4.97446122E-05                    1_GWF-(4,46,29)
        173          7         11      -7.7507760                    1_GWF-(6,47,29)  1.03452152E-05                    1_GWF-(4,53,24)
        174          7         12     -0.60766185                    1_GWF-(2,51,23) -7.20341680E-06                    1_GWF-(4,96,39)
        175          7         13     -0.38867413                    1_GWF-(2,51,23)  4.93675412E-06                    1_GWF-(4,45,22)
        176          7         14     -0.28588413                    1_GWF-(2,48,23)  4.85647983E-06                   1_GWF-(6,160,10)
        177          7         15     -0.20992851                    1_GWF-(2,48,23)  3.30415694E-06                    1_GWF-(4,43,26)
        178          7         16     -0.19313254                    1_GWF-(2,48,23)  3.18684127E-06                   1_GWF-(6,160,10)
        179          7         17     -0.14980856                    1_GWF-(2,48,23)  1.80559023E-06                    1_GWF-(4,45,28)
        180          7         18     -0.12638135                    1_GWF-(2,46,27)  1.22230176E-06                    1_GWF-(4,45,24)
        181          7         19  2.45732198E-03                   1_GWF-(5,161,10)  1.22138525E-06                    1_GWF-(4,46,27)
        182          8          1      -11.202048                    1_GWF-(3,20,28)  3.43786617E-04                   1_GWF-(7,149,13)
        183          8          2      -13.098192                     1_GWF-(5,38,6) -2.78345299E-04                     1_GWF-(9,25,2)
        184          8          3      -14.987777                     1_GWF-(5,26,9) -3.15532366E-04                     1_GWF-(9,25,2)
        185          8          4      -8.5405210                    1_GWF-(4,35,10) -1.69843251E-04                    1_GWF-(6,11,26)
        186          8          5       2.7721281                    1_GWF-(5,10,26) -2.09707441E-04                    1_GWF-(5,14,29)
        187          8          6      -6.7130905                    1_GWF-(2,43,23) -1.03423319E-04                    1_GWF-(5,14,29)
        188          8          7      -4.4920602                    1_GWF-(2,44,23)  5.73669949E-05                   1_GWF-(5,169,34)
        189          8          8      -3.5158622                    1_GWF-(2,45,23)  4.73423212E-05                   1_GWF-(5,169,34)
        190          8          9      -3.1964364                   1_GWF-(3,165,28)  3.54578926E-05                   1_GWF-(5,169,34)
        191          8         10  8.97847663E-02                    1_GWF-(4,38,13)  3.38073409E-05                   1_GWF-(6,173,35)
        192          8         11      -3.2210883                   1_GWF-(3,168,33) -3.37804712E-05                    1_GWF-(5,36,11)
        193          8         12     -0.84316530                   1_GWF-(3,170,35)  1.14662264E-05                   1_GWF-(6,173,35)
        194          8         13     -0.77515882                   1_GWF-(3,170,35)  1.04043783E-05                   1_GWF-(6,158,12)
        195          8         14     -0.39400266                   1_GWF-(3,170,35) -5.08817147E-06                   1_GWF-(4,107,35)
        196          8         15     -0.37306894                    1_GWF-(5,55,31)  8.60134022E-06                   1_GWF-(6,158,11)
        197          8         16     -0.22765516                    1_GWF-(5,54,30) -3.55694449E-06                   1_GWF-(4,105,37)
        198          8         17     -0.19606524                   1_GWF-(9,170,26)  5.82285515E-06                   1_GWF-(6,160,11)
        199          8         18     -0.11509919                   1_GWF-(9,170,26) -2.12629497E-06                   1_GWF-(4,105,37)
        200          8         19      0.13461502                   1_GWF-(2,108,36) -1.39897333E-06                   1_GWF-(4,104,38)
        201          8         20      0.10267361                   1_GWF-(2,104,38)  4.35733789E-06                   1_GWF-(6,161,10)
        202          8         21 -4.88938125E-02                    1_GWF-(2,44,23) -6.15401518E-07                   1_GWF-(4,107,38)
        203          8         22  3.94528380E-02                   1_GWF-(2,104,36) -3.39212261E-07                   1_GWF-(4,103,38)
        204          8         23  2.77153199E-02                   1_GWF-(2,104,36)  1.09267810E-06                   1_GWF-(6,161,11)
        205          8         24 -1.57647596E-02                    1_GWF-(2,45,23) -1.18052357E-07                   1_GWF-(4,104,38)
        206          8         25 -8.70547315E-03                    1_GWF-(2,43,23) -8.41951217E-08                    1_GWF-(4,80,20)
        207          9          1      -10.429941                    1_GWF-(4,15,26)  3.09167795E-04                     1_GWF-(8,27,4)
        208          9          2      -11.905615                     1_GWF-(5,26,9) -2.48060368E-04                     1_GWF-(9,25,2)
        209          9          3      -15.100926                     1_GWF-(5,26,9) -2.86410208E-04                     1_GWF-(9,25,2)
        210          9          4      -8.5015225                    1_GWF-(4,36,10) -1.62571587E-04                    1_GWF-(6,11,26)
        211          9          5       2.9360580                    1_GWF-(5,10,26) -1.72063695E-04                     1_GWF-(8,25,3)
        212          9          6      -6.0674035                    1_GWF-(3,42,17) -8.78323983E-05                    1_GWF-(5,32,13)
        213          9          7      -4.1117289                    1_GWF-(2,44,26)  6.47366535E-05                   1_GWF-(5,173,33)
        214          9          8      -3.4755368                   1_GWF-(3,169,31)  5.48846718E-05                   1_GWF-(5,173,33)
        215          9          9      -3.5340827                   1_GWF-(3,173,30)  4.13210573E-05                   1_GWF-(5,173,33)
        216          9         10     -0.37014450                   1_GWF-(5,173,33)  3.80396339E-05                   1_GWF-(5,173,33)
        217          9         11      -2.9510841                   1_GWF-(3,174,31) -2.78318896E-05                     1_GWF-(6,35,7)
        218          9         12      -1.1859516                   1_GWF-(3,174,31)  1.54576810E-05                   1_GWF-(5,173,33)
        219          9         13     -0.94780096                   1_GWF-(3,174,31)  1.01567865E-05                    1_GWF-(4,58,34)
        220          9         14     -0.59462215                   1_GWF-(3,174,31)  7.52090707E-06                    1_GWF-(4,59,34)
        221          9         15     -0.52287999                    1_GWF-(2,56,28)  6.69623202E-06                   1_GWF-(6,158,12)
        222          9         16     -0.37050699                    1_GWF-(2,56,28) -4.79471169E-06                   1_GWF-(4,105,37)
        223          9         17     -0.28949485                    1_GWF-(2,57,28)  7.16700133E-06                   1_GWF-(6,160,11)
        224          9         18     -0.18527743                    1_GWF-(2,57,28) -3.15528012E-06                   1_GWF-(4,106,39)
        225          9         19     -0.23032094                    1_GWF-(2,56,28) -1.86763251E-06                   1_GWF-(4,105,38)
        226          9         20      0.26378721                   1_GWF-(2,104,39) -2.06703720E-06                   1_GWF-(6,159,12)
        227          9         21 -5.67655768E-02                    1_GWF-(2,48,26)  5.07981622E-07                    1_GWF-(4,54,28)
        228          9         22     -0.42738147                    1_GWF-(2,50,26)  1.51733472E-06                    1_GWF-(4,94,51)
        229          9         23      0.34261686                    1_GWF-(2,48,26)  2.47637139E-07                    1_GWF-(4,43,30)
        230          9         24 -1.45560536E-02                    1_GWF-(2,44,26)  1.78920092E-07                    1_GWF-(4,45,30)
        231          9         25 -1.00352167E-02                    1_GWF-(2,44,26)  1.27767054E-07                    1_GWF-(4,45,34)
        232          9         26 -8.20734278E-03                    1_GWF-(2,44,26) -1.85268007E-07                   1_GWF-(6,163,11)
        233         10          1      -9.5340129                    1_GWF-(3,20,29)  2.77196687E-04                     1_GWF-(8,26,4)
        234         10          2      -11.153088                     1_GWF-(5,36,6) -2.32789417E-04                     1_GWF-(9,25,2)
        235         10          3      -12.997383                     1_GWF-(4,27,9) -2.70198353E-04                     1_GWF-(9,25,2)
        236         10          4      -7.9192794                    1_GWF-(4,35,11) -1.45068488E-04                    1_GWF-(6,12,26)
        237         10          5       2.2301103                    1_GWF-(5,11,26) -1.62568666E-04                    1_GWF-(5,32,13)
        238         10          6      -6.5423512                    1_GWF-(3,43,17) -1.03459626E-04                    1_GWF-(5,32,13)
        239         10          7      -3.9635790                    1_GWF-(2,46,27)  5.14464255E-05                    1_GWF-(4,44,27)
        240         10          8      -3.3783739                    1_GWF-(2,46,27)  4.15693891E-05                    1_GWF-(4,47,30)
        241         10          9      -3.1721355                    1_GWF-(2,46,27)  3.27512244E-05                    1_GWF-(4,51,34)
        242         10         10      0.21929193                    1_GWF-(2,47,27)  3.23768249E-05                    1_GWF-(4,53,34)
        243         10         11      -3.9116030                    1_GWF-(2,50,29) -3.01397692E-05                     1_GWF-(6,35,8)
        244         10         12     -0.93864785                    1_GWF-(2,55,28)  1.32300845E-05                    1_GWF-(4,58,30)
        245         10         13     -0.99748372                    1_GWF-(2,56,28)  1.10960142E-05                    1_GWF-(3,40,42)
        246         10         14     -0.52207426                    1_GWF-(2,56,28)  7.11997832E-06                    1_GWF-(4,60,34)
        247         10         15     -0.60369520                    1_GWF-(2,56,28)  6.80608773E-06                    1_GWF-(3,39,44)
        248         10         16     -0.35703714                    1_GWF-(2,56,28)  3.53172827E-06                    1_GWF-(4,56,28)
        249         10         17     -0.36106084                    1_GWF-(2,55,26) -5.71586499E-06                   1_GWF-(6,159,13)
        250         10         18     -0.20431897                    1_GWF-(2,55,26) -2.30856560E-06                   1_GWF-(5,173,33)
        251         10         19     -0.20998558                    1_GWF-(2,55,26) -2.02320133E-06                   1_GWF-(5,173,33)
        252         10         20  1.12037220E-02                   1_GWF-(3,173,30) -1.96122663E-06                   1_GWF-(5,173,33)
        253         10         21      0.31969476                   1_GWF-(3,173,30) -3.31464013E-06                   1_GWF-(6,161,13)
        254         10         22 -6.46616125E-02                    1_GWF-(2,47,27) -9.84958803E-07                   1_GWF-(6,163,12)
        255         10         23  9.33217926E-04                   1_GWF-(5,163,13) -4.17943233E-07                   1_GWF-(5,173,33)
        256         11          1      -8.8283228                    1_GWF-(3,20,28)  2.51494216E-04                   1_GWF-(8,123,18)
        257         11          2      -9.8245629                     1_GWF-(5,38,7) -2.17221190E-04                     1_GWF-(9,25,2)
        258         11          3      -12.582951                     1_GWF-(4,28,9) -2.38285535E-04                     1_GWF-(9,25,2)
        259         11          4      -7.9208039                    1_GWF-(4,36,12) -1.36943979E-04                    1_GWF-(6,11,28)
        260         11          5       2.3173109                    1_GWF-(5,11,26) -1.37589394E-04                     1_GWF-(8,25,3)
        261         11          6      -6.2942967                    1_GWF-(3,42,19) -8.03071427E-05                    1_GWF-(5,18,28)
        262         11          7      -4.0002472                    1_GWF-(3,42,19)  4.93441692E-05                    1_GWF-(4,46,29)
        263         11          8      -3.1771316                    1_GWF-(2,46,29)  4.09339126E-05                    1_GWF-(4,47,30)
        264         11          9      -3.0567518                    1_GWF-(2,46,29)  3.27483383E-05                    1_GWF-(4,51,34)
        265         11         10       1.1784318                    1_GWF-(2,46,29)  3.58329602E-05                    1_GWF-(4,49,30)
        266         11         11      -5.7370557                    1_GWF-(2,50,29) -2.40870689E-05                     1_GWF-(6,35,8)
        267         11         12     -0.85557385                    1_GWF-(2,59,30)  1.19213736E-05                    1_GWF-(4,62,30)
        268         11         13     -0.76748100                    1_GWF-(2,59,30)  9.24896053E-06                    1_GWF-(4,62,30)
        269         11         14     -0.64681592                    1_GWF-(2,59,30)  6.61113465E-06                    1_GWF-(4,63,34)
        270         11         15  3.41868423E-02                   1_GWF-(6,162,22) -6.77015247E-06                   1_GWF-(5,168,19)
        271         11         16     -0.76665180                    1_GWF-(2,62,30) -7.33445145E-06                   1_GWF-(5,168,18)
        272         11         17     -0.33615781                    1_GWF-(2,59,30)  2.71576479E-06                    1_GWF-(4,48,29)
        273         11         18     -0.23849738                    1_GWF-(2,59,30) -3.32278711E-06                   1_GWF-(5,169,19)
        274         11         19     -0.17391120                    1_GWF-(2,59,30) -2.52517418E-06                   1_GWF-(5,169,19)
        275         11         20     -0.17948900                    1_GWF-(2,50,29) -3.66269334E-06                   1_GWF-(5,169,20)
        276         11         21     -0.12491465                    1_GWF-(2,50,29) -1.30496220E-06                   1_GWF-(5,171,19)
        277         11         22     -0.11025850                    1_GWF-(2,50,29) -1.05466903E-06                   1_GWF-(5,171,19)
        278         11         23      0.11508169                    1_GWF-(2,50,29) -1.34715770E-06                   1_GWF-(5,173,28)
        279         11         24      0.31521807                   1_GWF-(8,172,27) -8.62119982E-07                   1_GWF-(6,161,12)
        280         11         25 -1.17744104E-02                    1_GWF-(2,47,29)  1.80168757E-07                    1_GWF-(4,47,34)
        281         11         26 -2.75576599E-02                    1_GWF-(2,50,29)  1.27255203E-07                    1_GWF-(4,53,24)
        282         11         27 -8.95938295E-03                    1_GWF-(2,54,29)  4.29965794E-08                    1_GWF-(4,47,26)
        283         12          1      -9.2443756                    1_GWF-(3,32,13)  2.34597818E-04                   1_GWF-(2,108,44)
        284         12          2      -9.3096418                     1_GWF-(6,37,4) -1.87035888E-04                     1_GWF-(9,25,2)
        285         12          3      -12.436535                     1_GWF-(5,29,9) -2.10755901E-04                     1_GWF-(9,25,2)
        286         12          4      -7.5220087                    1_GWF-(4,35,13) -1.27211793E-04                    1_GWF-(7,11,26)
        287         12          5       1.5480354                    1_GWF-(5,11,27) -1.18093537E-04                    1_GWF-(5,18,28)
        288         12          6      -6.8296356                    1_GWF-(3,41,20) -9.07721471E-05                    1_GWF-(5,18,28)
        289         12          7      -4.1452699                    1_GWF-(3,42,20)  4.82183605E-05                    1_GWF-(4,47,29)
        290         12          8      -3.2310578                    1_GWF-(7,44,25)  4.10929193E-05                    1_GWF-(4,47,30)
        291         12          9      -3.1113650                    1_GWF-(6,45,28)  3.40024338E-05                    1_GWF-(4,50,34)
        292         12         10      0.24909646                    1_GWF-(4,44,25)  3.39247730E-05                    1_GWF-(4,48,34)
        293         12         11      -4.3833122                    1_GWF-(2,50,31)  3.57654936E-05                    1_GWF-(4,40,42)
        294         12         12      -1.0200513                    1_GWF-(2,56,31)  1.37733809E-05                    1_GWF-(4,58,34)
        295         12         13     -0.97365486                    1_GWF-(2,56,31)  1.17811354E-05                    1_GWF-(4,39,42)
        296         12         14     -0.70159321                    1_GWF-(2,56,31)  8.52868684E-06                    1_GWF-(4,59,34)
        297         12         15     -0.70519893                    1_GWF-(2,56,31) -7.19331791E-06                   1_GWF-(5,167,20)
        298         12         16      0.56793120                    1_GWF-(2,56,31)  8.02047295E-06                    1_GWF-(4,60,34)
        299         12         17      -2.0172925                    1_GWF-(2,56,31) -7.95299146E-06                   1_GWF-(5,168,20)
        300         12         18     -0.18298925                    1_GWF-(3,46,19)  2.31877274E-06                    1_GWF-(4,57,30)
        301         12         19     -0.13590916                    1_GWF-(3,46,19) -1.88860306E-06                   1_GWF-(5,171,19)
        302         12         20 -9.06916966E-02                    1_GWF-(4,49,27)  1.26286618E-06                    1_GWF-(4,58,34)
        303         12         21 -8.51777170E-02                    1_GWF-(2,50,31) -1.21748483E-06                   1_GWF-(5,169,20)
        304         12         22 -6.47480297E-02                    1_GWF-(2,50,31)  6.81388237E-07                    1_GWF-(4,55,34)
        305         12         23 -6.68712211E-02                    1_GWF-(2,50,31) -1.00795535E-06                   1_GWF-(5,169,20)
        306         12         24 -4.67491341E-02                    1_GWF-(2,50,31)  3.72212500E-07                    1_GWF-(4,53,24)
[...]
       1673         57         11     -0.13406595                    1_GWF-(4,45,40)  1.13249048E-06                    1_GWF-(6,38,46)
       1674         57         12 -9.81493048E-02                    1_GWF-(4,45,40)  1.04857785E-06                    1_GWF-(6,36,45)
       1675         57         13     -0.10613780                    1_GWF-(7,36,48)  9.20621042E-07                    1_GWF-(6,50,48)
       1676         57         14     -0.23500401                    1_GWF-(9,39,49)  8.38217256E-07                    1_GWF-(6,58,50)
       1677         57         15      0.12427519                    1_GWF-(4,27,20)  7.48530382E-07                    1_GWF-(5,69,50)
       1678         57         16 -8.14815880E-02                    1_GWF-(6,62,51)  5.38197859E-07                    1_GWF-(6,68,44)
       1679         57         17 -7.57118782E-02                    1_GWF-(7,59,51)  4.15514245E-07                    1_GWF-(6,61,44)
       1680         57         18  1.39858651E-02                    1_GWF-(6,58,51)  4.30365989E-07                    1_GWF-(6,64,44)
       1681         57         19     -0.10648302                    1_GWF-(7,57,46)  3.19725728E-07                    1_GWF-(6,62,50)
       1682         57         20 -6.86271294E-02                    1_GWF-(9,56,51)  1.93569540E-07                    1_GWF-(6,61,49)
       1683         57         21  1.22944609E-03                   1_GWF-(4,167,39)  2.11862643E-07                    1_GWF-(6,60,50)
       1684         58          1     -0.14541986                    1_GWF-(4,15,26)  7.54427201E-06                    1_GWF-(7,68,11)
       1685         58          2     -0.15618240                     1_GWF-(5,30,7)  2.79842911E-06                    1_GWF-(8,13,29)
       1686         58          3     -0.28884439                     1_GWF-(4,29,8) -4.12722021E-06                    1_GWF-(8,69,10)
       1687         58          4     -0.18799186                    1_GWF-(4,15,30) -2.61997681E-06                     1_GWF-(9,28,6)
       1688         58          5     -0.19003529                    1_GWF-(6,22,23) -5.07695183E-06                    1_GWF-(8,69,10)
       1689         58          6     -0.18877550                    1_GWF-(4,25,21) -1.56139801E-06                     1_GWF-(9,29,9)
       1690         58          7     -0.18869530                    1_GWF-(7,33,27) -4.47767179E-06                    1_GWF-(8,69,11)
       1691         58          8     -0.16886907                    1_GWF-(2,32,31)  1.16832631E-06                    1_GWF-(7,43,35)
       1692         58          9     -0.24157426                    1_GWF-(5,36,30) -1.47469773E-06                    1_GWF-(7,23,26)
       1693         58         10  1.70255252E-02                    1_GWF-(4,25,21) -1.48558834E-06                    1_GWF-(7,24,25)
       1694         58         11     -0.16716874                    1_GWF-(8,42,34) -1.50608516E-06                    1_GWF-(7,24,25)
       1695         58         12     -0.10765344                    1_GWF-(4,46,39) -1.24718507E-06                    1_GWF-(7,24,25)
       1696         58         13     -0.10313070                    1_GWF-(2,46,39)  8.75423890E-07                    1_GWF-(6,43,46)
       1697         58         14     -0.11397264                    1_GWF-(4,45,40)  8.21608150E-07                    1_GWF-(6,49,49)
       1698         58         15 -4.07435892E-02                    1_GWF-(7,47,50)  1.58419115E-06                    1_GWF-(8,71,10)
       1699         58         16 -9.53214663E-02                    1_GWF-(8,44,49)  7.07449636E-07                    1_GWF-(6,68,50)
       1700         58         17 -8.33196993E-02                    1_GWF-(8,47,50)  6.16080014E-07                    1_GWF-(6,58,50)
       1701         58         18  3.15697732E-02                    1_GWF-(8,49,49)  6.57720624E-07                    1_GWF-(6,60,50)
       1702         58         19     -0.15829408                    1_GWF-(7,55,50) -5.25531590E-07                    1_GWF-(7,40,20)
       1703         58         20 -7.96343247E-02                    1_GWF-(7,56,51)  3.20117360E-07                    1_GWF-(6,62,50)
       1704         58         21  3.02254394E-03                    1_GWF-(6,33,47)  3.67823911E-07                    1_GWF-(6,59,50)
       1705         59          1     -0.13104308                    1_GWF-(4,15,26)  6.78185111E-06                    1_GWF-(7,68,11)
       1706         59          2     -0.14076481                     1_GWF-(5,30,7)  2.51774256E-06                    1_GWF-(8,13,29)
       1707         59          3     -0.26063565                     1_GWF-(4,29,8) -3.72664268E-06                    1_GWF-(8,69,10)
       1708         59          4     -0.16911201                    1_GWF-(4,15,30) -2.36959117E-06                     1_GWF-(9,28,6)
       1709         59          5     -0.17207304                    1_GWF-(6,22,23) -4.60298418E-06                    1_GWF-(8,69,10)
       1710         59          6     -0.16952374                    1_GWF-(4,25,21) -1.40265118E-06                     1_GWF-(9,29,9)
       1711         59          7     -0.17353206                    1_GWF-(7,33,27) -4.04520134E-06                    1_GWF-(8,69,11)
       1712         59          8     -0.15807431                    1_GWF-(5,34,31)  1.06697712E-06                    1_GWF-(7,43,35)
       1713         59          9     -0.35024871                    1_GWF-(5,37,30) -1.38538522E-06                    1_GWF-(7,23,26)
       1714         59         10      0.17507845                    1_GWF-(6,25,21) -2.26630072E-06                    1_GWF-(8,70,11)
       1715         59         11     -0.12416211                    1_GWF-(2,42,40)  8.80565594E-07                    1_GWF-(6,39,44)
       1716         59         12 -9.92994537E-02                    1_GWF-(1,35,43)  8.82348336E-07                    1_GWF-(6,38,46)
       1717         59         13 -8.87218190E-02                    1_GWF-(7,36,48)  7.14661004E-07                    1_GWF-(6,50,49)
       1718         59         14     -0.10098576                    1_GWF-(8,39,49)  6.58123607E-07                    1_GWF-(6,49,47)
       1719         59         15 -1.77594724E-02                    1_GWF-(5,51,48)  8.01019982E-07                    1_GWF-(8,71,10)
       1720         59         16 -8.46848492E-02                    1_GWF-(8,49,50)  5.56083558E-07                    1_GWF-(6,62,50)
       1721         59         17 -6.60269989E-02                    1_GWF-(8,49,50)  4.91038487E-07                    1_GWF-(6,58,50)
       1722         59         18 -8.28725403E-02                    1_GWF-(7,52,50)  3.93853838E-07                    1_GWF-(6,58,50)
       1723         59         19 -3.58825557E-03                    1_GWF-(6,61,51)  3.94477442E-07                    1_GWF-(6,61,50)
       1724         60          1     -0.11801916                    1_GWF-(4,15,26)  6.09245911E-06                    1_GWF-(7,68,11)
       1725         60          2     -0.12565238                     1_GWF-(5,32,7)  2.26455362E-06                    1_GWF-(8,13,29)
       1726         60          3     -0.23272943                     1_GWF-(5,30,8) -3.37429810E-06                    1_GWF-(8,69,10)
       1727         60          4     -0.15341884                    1_GWF-(4,15,30) -2.14897689E-06                     1_GWF-(9,28,6)
       1728         60          5     -0.15532694                    1_GWF-(6,21,24) -4.19327288E-06                    1_GWF-(8,69,10)
       1729         60          6     -0.15223478                    1_GWF-(4,26,21) -1.27775400E-06                     1_GWF-(9,29,9)
       1730         60          7     -0.16144269                    1_GWF-(2,35,30) -3.72689939E-06                    1_GWF-(8,69,11)
       1731         60          8     -0.14369400                    1_GWF-(5,35,30)  9.69081712E-07                    1_GWF-(7,43,35)
       1732         60          9     -0.20562880                    1_GWF-(2,35,30) -1.25761704E-06                    1_GWF-(7,23,26)
       1733         60         10  1.37881384E-02                    1_GWF-(4,23,23) -1.26004881E-06                    1_GWF-(7,24,25)
       1734         60         11     -0.14552964                    1_GWF-(8,43,35) -1.28968692E-06                    1_GWF-(7,24,25)
       1735         60         12 -9.18368376E-02                    1_GWF-(4,47,39) -1.02006470E-06                    1_GWF-(7,24,25)
       1736         60         13 -8.60983260E-02                    1_GWF-(2,47,39)  7.06128786E-07                    1_GWF-(6,40,47)
       1737         60         14 -8.24310787E-02                    1_GWF-(4,46,40)  6.59548832E-07                    1_GWF-(6,43,48)
       1738         60         15 -5.81968284E-03                    1_GWF-(6,47,49) -6.74231622E-07                    1_GWF-(7,36,21)
       1739         61          1     -0.10601385                    1_GWF-(4,15,26)  5.45289147E-06                    1_GWF-(7,68,11)
       1740         61          2     -0.11218577                     1_GWF-(5,32,7)  2.01461161E-06                    1_GWF-(8,13,29)
       1741         61          3     -0.20757420                     1_GWF-(5,30,8) -3.03827819E-06                    1_GWF-(8,69,10)
       1742         61          4     -0.13754477                    1_GWF-(4,15,30) -1.96585374E-06                     1_GWF-(9,28,6)
       1743         61          5     -0.14222121                    1_GWF-(6,21,24) -3.85699858E-06                    1_GWF-(8,69,10)
       1744         61          6     -0.14659617                    1_GWF-(4,24,22) -1.18404024E-06                     1_GWF-(9,29,9)
       1745         61          7     -0.15143501                    1_GWF-(7,31,27) -3.18534056E-06                    1_GWF-(8,69,11)
       1746         61          8     -0.51349508                    1_GWF-(5,35,30) -1.83442044E-06                    1_GWF-(7,25,24)
       1747         61          9      0.36774218                    1_GWF-(6,24,22) -1.30748300E-06                    1_GWF-(8,70,12)
       1748         61         10     -0.13036405                    1_GWF-(8,43,37)  7.93135747E-07                    1_GWF-(6,40,44)
       1749         61         11     -0.10119367                    1_GWF-(2,46,40)  6.84828399E-07                    1_GWF-(6,38,46)
       1750         61         12 -7.61612439E-02                    1_GWF-(1,38,42)  6.84194005E-07                    1_GWF-(6,36,45)
       1751         61         13 -7.30091279E-02                    1_GWF-(7,36,48)  5.80882558E-07                    1_GWF-(6,49,48)
       1752         61         14 -7.46296824E-02                    1_GWF-(8,39,49)  5.35351445E-07                    1_GWF-(6,52,49)
       1753         61         15 -1.48743555E-02                    1_GWF-(5,52,49)  6.38286233E-07                    1_GWF-(6,67,50)
       1754         61         16 -6.31736129E-02                    1_GWF-(7,48,49)  4.95892360E-07                    1_GWF-(6,61,48)
       1755         61         17 -5.14926451E-02                    1_GWF-(7,50,50)  3.81535850E-07                    1_GWF-(6,58,50)
       1756         61         18  2.13824800E-02                    1_GWF-(7,52,50)  4.29679787E-07                    1_GWF-(6,61,50)
       1757         61         19     -0.12764284                    1_GWF-(7,58,51) -3.92473032E-07                    1_GWF-(7,30,22)
       1758         61         20 -3.73880551E-02                    1_GWF-(7,56,51)  1.56223742E-07                    1_GWF-(6,62,50)
       1759         61         21  2.91692865E-02                    1_GWF-(8,57,50)  1.75888447E-07                    1_GWF-(6,60,50)
       1760         61         22 -9.13501150E-02                    1_GWF-(7,58,51)  9.88263920E-08                    1_GWF-(6,67,44)
       1761         61         23 -1.32717324E-02                    1_GWF-(6,53,50) -7.17972121E-08                   1_GWF-(7,173,33)
       1762         61         24 -6.61121367E-03                    1_GWF-(7,56,46) -6.28619165E-08                   1_GWF-(7,173,33)
       1763         62          1 -9.54903023E-02                    1_GWF-(4,15,26)  4.90916196E-06                    1_GWF-(7,68,11)
       1764         62          2     -0.10115919                     1_GWF-(5,32,7)  1.81612197E-06                    1_GWF-(8,13,29)
       1765         62          3     -0.18740528                     1_GWF-(5,30,8) -2.74373650E-06                    1_GWF-(8,69,10)
       1766         62          4     -0.12388291                    1_GWF-(4,15,30) -1.76972829E-06                     1_GWF-(9,28,6)
       1767         62          5     -0.12840654                    1_GWF-(6,21,24) -3.49358455E-06                    1_GWF-(8,69,10)
       1768         62          6     -0.12979220                    1_GWF-(4,24,22) -1.05458632E-06                     1_GWF-(9,29,9)
       1769         62          7     -0.13620090                    1_GWF-(7,31,27) -3.00497709E-06                    1_GWF-(8,69,11)
       1770         62          8     -0.18767302                    1_GWF-(2,33,31) -9.47440918E-07                    1_GWF-(8,20,24)
       1771         62          9  7.53901812E-02                    1_GWF-(6,21,24) -1.59882393E-06                    1_GWF-(8,70,12)
       1772         62         10     -0.13267466                    1_GWF-(4,37,30) -7.26304393E-07                    1_GWF-(8,24,15)
       1773         62         11 -9.32252666E-02                    1_GWF-(4,43,40)  6.52067385E-07                    1_GWF-(6,38,46)
       1774         62         12 -7.10297189E-02                    1_GWF-(1,42,41)  6.54659808E-07                    1_GWF-(6,36,45)
       1775         62         13 -6.80173607E-02                    1_GWF-(4,42,41)  5.32678209E-07                    1_GWF-(6,37,48)
       1776         62         14 -7.16352955E-02                    1_GWF-(8,38,48)  4.89654132E-07                    1_GWF-(6,50,48)
       1777         62         15 -2.40929234E-02                    1_GWF-(7,47,50)  6.56853769E-07                    1_GWF-(6,67,50)
       1778         62         16 -5.31756765E-02                    1_GWF-(7,48,49)  4.07908482E-07                    1_GWF-(6,61,48)
       1779         62         17 -4.66150195E-02                    1_GWF-(8,49,50)  3.41667927E-07                    1_GWF-(6,58,50)
       1780         62         18  1.11071346E-02                    1_GWF-(7,50,49)  3.76820182E-07                    1_GWF-(6,61,50)
       1781         62         19 -9.63011609E-02                    1_GWF-(7,58,51)  3.44710838E-07                    1_GWF-(6,60,50)
       1782         62         20 -3.67202827E-02                    1_GWF-(7,56,51)  1.56495783E-07                    1_GWF-(6,61,50)
       1783         62         21  1.68541546E-02                    1_GWF-(7,58,50)  1.67760575E-07                    1_GWF-(6,59,50)
       1784         62         22 -8.55306332E-02                    1_GWF-(7,58,51)  9.56960941E-08                    1_GWF-(6,61,48)
       1785         62         23 -9.42400752E-03                    1_GWF-(6,51,50) -5.24114824E-08                   1_GWF-(7,164,22)
       1786         63          1 -8.60152487E-02                    1_GWF-(4,15,26)  4.41667718E-06                    1_GWF-(7,68,11)
       1787         63          2 -9.11938571E-02                     1_GWF-(5,32,7)  1.63776024E-06                    1_GWF-(8,13,29)
       1788         63          3     -0.16924051                     1_GWF-(5,30,8) -2.47940697E-06                    1_GWF-(8,69,10)
       1789         63          4     -0.11079335                    1_GWF-(4,15,30) -1.59303693E-06                     1_GWF-(9,28,6)
       1790         63          5     -0.11559146                    1_GWF-(6,21,24) -3.15069203E-06                    1_GWF-(8,69,10)
       1791         63          6     -0.11417657                    1_GWF-(4,24,22) -9.34421056E-07                     1_GWF-(9,29,9)
       1792         63          7     -0.12411550                    1_GWF-(7,31,27) -2.71812107E-06                    1_GWF-(8,69,11)
       1793         63          8     -0.13800420                    1_GWF-(2,33,31) -7.89170570E-07                    1_GWF-(8,20,24)
       1794         63          9  2.50800839E-02                    1_GWF-(6,20,25) -1.57094367E-06                    1_GWF-(7,24,26)
       1795         63         10     -0.14751530                    1_GWF-(5,38,30) -9.04028155E-07                    1_GWF-(7,24,26)
       1796         63         11 -8.97492855E-02                    1_GWF-(8,42,35) -7.95280981E-07                    1_GWF-(7,24,26)
       1797         63         12 -6.57376262E-02                    1_GWF-(4,48,39) -7.71746277E-07                    1_GWF-(7,24,26)
       1798         63         13 -6.31356568E-02                    1_GWF-(2,47,40) -5.34207136E-07                    1_GWF-(7,27,24)
       1799         63         14 -5.85062596E-02                    1_GWF-(3,43,41)  4.65665285E-07                    1_GWF-(6,49,48)
       1800         63         15 -4.88585107E-03                    1_GWF-(7,47,50) -5.74633946E-07                    1_GWF-(7,28,23)
       1801         64          1 -8.32811144E-02                    1_GWF-(4,22,24) -5.13405560E-07                    1_GWF-(7,21,25)
       1802         64          2 -3.71714042E-02                    1_GWF-(7,47,49) -1.08870111E-06                   1_GWF-(6,161,51)
       1803         64          3 -8.31437448E-02                    1_GWF-(7,48,50) -1.14153471E-06                   1_GWF-(6,162,51)
       1804         64          4 -3.14722247E-02                    1_GWF-(6,51,50) -6.63736162E-07                   1_GWF-(6,162,51)
       1805         64          5 -1.55184820E-02                    1_GWF-(7,56,51)  2.95576240E-07                    1_GWF-(7,27,22)
       1806         64          6 -1.37375303E-02                    1_GWF-(6,62,51)  1.85378893E-07                    1_GWF-(7,29,28)
       1807         64          7 -1.06359241E-02                    1_GWF-(7,29,28)  2.93926858E-07                    1_GWF-(7,28,22)
       1808         64          8 -1.28122496E-02                    1_GWF-(6,62,51) -1.45901494E-07                   1_GWF-(6,160,51)
       1809         64          9 -1.55321908E-02                    1_GWF-(6,65,51)  1.26081115E-07                    1_GWF-(7,22,27)
       1810         64         10 -1.45786294E-02                    1_GWF-(7,66,51)  1.28773572E-07                    1_GWF-(7,22,27)
       1811         64         11 -1.23250295E-02                    1_GWF-(7,66,51)  1.11702089E-07                    1_GWF-(7,41,20)
       1812         64         12 -9.71933311E-03                    1_GWF-(8,66,50)  1.06604409E-07                    1_GWF-(7,41,20)
       1813         65          1 -6.75029394E-03                    1_GWF-(6,17,29)  1.19635804E-07                    1_GWF-(6,44,41)
 --------------------------------------------------------------------------------------------------------------------------------------



 MEMORY MANAGER TOTAL STORAGE BY DATA TYPE, IN MEGABYTES
 -------------------------------
                    ALLOCATED   
 DATA TYPE           MEMORY     
 -------------------------------
 Character        5.64300000E-02
 Logical          4.80000000E-05
 Integer          20.269040     
 Real             40.612224     
 -------------------------------
 Total            60.937742     
 Virtual          0.0000000     
 -------------------------------


 
 Run end date and time (yyyy/mm/dd hh:mm:ss): 2025/05/22 17:22:34
 Elapsed run time: 11.099 Seconds
 Normal termination of simulation.
