                                   MODFLOW 6
                U.S. GEOLOGICAL SURVEY MODULAR HYDROLOGIC MODEL
                            VERSION 6.6.0 12/20/2024

   MODFLOW 6 compiled Dec 31 2024 17:08:41 with Intel(R) Fortran Intel(R) 64
   Compiler Classic for applications running on Intel(R) 64, Version 2021.7.0
                             Build 20220726_000000

This software has been approved for release by the U.S. Geological 
Survey (USGS). Although the software has been subjected to rigorous 
review, the USGS reserves the right to update the software as needed 
pursuant to further analysis and review. No warranty, expressed or 
implied, is made by the USGS or the U.S. Government as to the 
functionality of the software and related material nor shall the 
fact of release constitute any such warranty. Furthermore, the 
software is released on condition that neither the USGS nor the U.S. 
Government shall be held liable for any damages resulting from its 
authorized or unauthorized use. Also refer to the USGS Water 
Resources Software User Rights Notice for complete use, copyright, 
and distribution information.


As a work of the United States Government, this USGS product is 
in the public domain within the United States. You can copy, 
modify, distribute, and perform the work, even for commercial 
purposes, all without asking permission. Additionally, USGS 
waives copyright and related rights in the work worldwide 
through CC0 1.0 Universal Public Domain Dedication 
(https://creativecommons.org/publicdomain/zero/1.0/).

The following GNU Lesser General Public License (LGPL) libraries
are used in this USGS product:

    SPARSKIT version 2.0
      ilut, luson, and qsplit 
      (https://www-users.cse.umn.edu/~saad/software/SPARSKIT/)

    RCM - Reverse Cuthill McKee Ordering
      (https://people.math.sc.edu/Burkardt/f_src/rcm/rcm.html)

    BLAS - Basic Linear Algebra Subprograms Level 1
      (https://people.math.sc.edu/Burkardt/f_src/blas1_d/blas1_d.html)

    SPARSEKIT - Sparse Matrix Utility Package
      amux, dperm, dvperm, rperm, and cperm
      (https://people.sc.fsu.edu/~jburkardt/f77_src/sparsekit/sparsekit.html)

The following BSD-3 License libraries are used in this USGS product:

    Modern Fortran DAG Library
      Copyright (c) 2018, Jacob Williams
      All rights reserved.
      (https://github.com/jacobwilliams/daglib)

MODFLOW 6 compiler options: -Ilinux/obj_mf6 -O2 -no-heap-arrays -fpe0
-traceback -Qdiag-disable:7416 -Qdiag-disable:7025 -Qdiag-disable:5268 -fpp
-module linux/mod_mf6/ -c -o linux/obj_mf6/compilerversion.o

System command used to initiate simulation:
/mnt/c/Users/saulm/Documents/GitHub/mf6Voronoi/examples/bin/mf6

MODFLOW was compiled using uniform precision.

Real Variables
  KIND: 8
  TINY (smallest non-zero value):    2.225074-308
  HUGE (largest value):    1.797693+308
  PRECISION: 15
  SIZE IN BITS: 64

Integer Variables
  KIND: 4
  HUGE (largest value): 2147483647
  SIZE IN BITS: 32

Long Integer Variables
  KIND: 8
  HUGE (largest value): 9223372036854775807
  SIZE IN BITS: 64

Logical Variables
  KIND: 4
  SIZE IN BITS: 32
 

 OPENED mfsim.nam
 FILE TYPE:NAM6               UNIT 1001   STATUS:OLD                 
 FORMAT:FORMATTED              ACCESS:SEQUENTIAL          
 ACTION:READ                

 # File generated by Flopy version 3.9.2 on 05/22/2025 at 14:49:41.

 OPENED ex-gwf-toth.tdis
 FILE TYPE:TDIS6              UNIT 1002   STATUS:OLD                 
 FORMAT:FORMATTED              ACCESS:SEQUENTIAL          
 ACTION:READ                

 # File generated by Flopy version 3.9.2 on 05/22/2025 at 14:49:41.

 OPENED toth.nam
 FILE TYPE:GWF6               UNIT 1003   STATUS:OLD                 
 FORMAT:FORMATTED              ACCESS:SEQUENTIAL          
 ACTION:READ                

 # File generated by Flopy version 3.9.2 on 05/22/2025 at 14:49:41.

 OPENED toth.dis
 FILE TYPE:DIS6               UNIT 1004   STATUS:OLD                 
 FORMAT:FORMATTED              ACCESS:SEQUENTIAL          
 ACTION:READ                

 # File generated by Flopy version 3.9.2 on 05/22/2025 at 14:49:41.

 OPENED toth.npf
 FILE TYPE:NPF6               UNIT 1005   STATUS:OLD                 
 FORMAT:FORMATTED              ACCESS:SEQUENTIAL          
 ACTION:READ                

 # File generated by Flopy version 3.9.2 on 05/22/2025 at 14:49:41.

 OPENED toth.ic
 FILE TYPE:IC6                UNIT 1006   STATUS:OLD                 
 FORMAT:FORMATTED              ACCESS:SEQUENTIAL          
 ACTION:READ                

 # File generated by Flopy version 3.9.2 on 05/22/2025 at 14:49:41.

 OPENED toth.oc
 FILE TYPE:OC6       UNIT 1007   STATUS:OLD                 
 FORMAT:FORMATTED              ACCESS:SEQUENTIAL          
 ACTION:READ                


 OPENED toth.chd
 FILE TYPE:CHD6               UNIT 1008   STATUS:OLD                 
 FORMAT:FORMATTED              ACCESS:SEQUENTIAL          
 ACTION:READ                

 # File generated by Flopy version 3.9.2 on 05/22/2025 at 14:49:41.

 READING SIMULATION OPTIONS
    MAXIMUM NUMBER OF ERRORS THAT WILL BE STORED IS 1000
 END OF SIMULATION OPTIONS

 READING SIMULATION TIMING

 TDIS -- TEMPORAL DISCRETIZATION PACKAGE,
 VERSION 1 : 11/13/2014 - INPUT READ FROM MEMPATH: __INPUT__/SIM/TDIS                                
 PROCESSING TDIS OPTIONS
    SIMULATION TIME UNIT IS UNDEFINED
 END OF TDIS OPTIONS
 PROCESSING TDIS DIMENSIONS
    1 STRESS PERIOD(S) IN SIMULATION
 END OF TDIS DIMENSIONS
 PROCESSING TDIS PERIODDATA


 STRESS PERIOD     LENGTH       TIME STEPS     MULTIPLIER FOR DELT
 ----------------------------------------------------------------------------
        1         1.000000          1                    1.000
 END OF TDIS PERIODDATA
 END OF SIMULATION TIMING

 READING SIMULATION MODELS
    GWF6 model 1 will be created
 END OF SIMULATION MODELS

 READING SIMULATION EXCHANGES
 END OF SIMULATION EXCHANGES

 READING SOLUTIONGROUP

 Creating solution: SLN_1           

 OPENED ex-gwf-toth.ims
 FILE TYPE:IMS   UNIT 1010   STATUS:OLD                 
 FORMAT:FORMATTED              ACCESS:SEQUENTIAL          
 ACTION:READ                

 END OF SOLUTIONGROUP

PROCESSING MODEL CONNECTIONS

 IMS -- ITERATIVE MODEL SOLUTION PACKAGE, VERSION 6, 4/28/2017
         INPUT READ FROM UNIT 1010
 # File generated by Flopy version 3.9.2 on 05/22/2025 at 14:49:41.

 PROCESSING IMS OPTIONS
 END OF IMS OPTIONS
 ***UNDER-RELAXATION WILL NOT BE USED***
 

 PROCESSING LINEAR DATA
 END OF LINEAR DATA
 ***IMS LINEAR SOLVER WILL BE USED***

 IMSLINEAR -- UNSTRUCTURED LINEAR SOLUTION PACKAGE, VERSION 8, 04/28/2017
 A symmetric matrix will be solved

 OUTER ITERATION CONVERGENCE CRITERION    (DVCLOSE) =    0.100000E-02
 MAXIMUM NUMBER OF OUTER ITERATIONS        (MXITER) = 25
 SOLVER PRINTOUT INDEX                     (IPRIMS) = 2
 NONLINEAR ITERATION METHOD            (NONLINMETH) = 0
 LINEAR SOLUTION METHOD                   (LINMETH) = 1

       SOLUTION BY THE        CONJUGATE-GRADIENT       METHOD
 ------------------------------------------------------------------
 MAXIMUM OF 25 CALLS OF SOLUTION ROUTINE
 MAXIMUM OF 100 INTERNAL ITERATIONS PER CALL TO SOLUTION ROUTINE
 LINEAR ACCELERATION METHOD            = CG        
 MATRIX PRECONDITIONING TYPE           = INCOMPLETE LU       
 MATRIX SCALING APPROACH               = NO SCALING          
 MATRIX REORDERING APPROACH            = ORIGINAL ORDERING        
 NUMBER OF ORTHOGONALIZATIONS          = 0
 HEAD CHANGE CRITERION FOR CLOSURE     =    0.10000E-02
 RESIDUAL CHANGE CRITERION FOR CLOSURE =    0.10000E+00
 RESIDUAL CONVERGENCE OPTION           = 0
 RESIDUAL CONVERGENCE NORM             = INFINITY NORM   
 RELAXATION FACTOR                     =    0.00000E+00



 
    Solving:  Stress period:     1    Time step:     1
 
1
 STRESS PERIOD NO. 1, LENGTH =   1.000000    
 ------------------------------------------
 NUMBER OF TIME STEPS = 1
 MULTIPLIER FOR DELT =     1.000
 INITIAL TIME STEP SIZE =   1.000000    

 SLN_1 OUTER ITERATION SUMMARY
 ----------------------------------------------------------------------------------------------------------
                                OUTER      INNER                    STEP   MAXIMUM CHANGE MODEL-(CELLID) OR
 OUTER ITERATION STEP       ITERATION  ITERATION  MAXIMUM CHANGE SUCCESS             MODEL-PACKAGE-(NUMBER)
 ----------------------------------------------------------------------------------------------------------
 Model                              1        100       1000.3349                             1_GWF-(2,1,82)
 Model                              2         45     -0.60394081                            1_GWF-(92,1,47)
 Model                              3          1  2.39608024E-04       *                    1_GWF-(124,1,1)
 ----------------------------------------------------------------------------------------------------------


 3 CALLS TO NUMERICAL SOLUTION IN TIME STEP 1 STRESS PERIOD 1
 146 TOTAL ITERATIONS

 SLN_1 INNER ITERATION SUMMARY
 --------------------------------------------------------------------------------------------------------------------------------------
      TOTAL      OUTER      INNER                                                            MAXIMUM                                   
  ITERATION  ITERATION  ITERATION  MAXIMUM CHANGE      MAXIMUM CHANGE MODEL-(CELLID)        RESIDUAL    MAXIMUM RESIDUAL MODEL-(CELLID)
 --------------------------------------------------------------------------------------------------------------------------------------
          1          1          1       894.80700                    1_GWF-(2,1,100)       347.90088                     1_GWF-(2,1,82)
          2          1          2       389.83836                     1_GWF-(6,1,99)       151.76604                     1_GWF-(3,1,99)
          3          1          3       268.11201                    1_GWF-(10,1,98)      -123.40233                     1_GWF-(3,1,99)
          4          1          4       219.35628                    1_GWF-(12,1,99)       98.150648                     1_GWF-(8,1,99)
          5          1          5       158.23309                    1_GWF-(9,1,100)      -59.584328                     1_GWF-(8,1,99)
          6          1          6       138.78451                    1_GWF-(22,1,97)      -59.303524                     1_GWF-(3,1,99)
          7          1          7       109.77857                    1_GWF-(27,1,96)       53.562746                     1_GWF-(6,1,99)
          8          1          8       93.986769                    1_GWF-(31,1,95)       38.189898                     1_GWF-(3,1,81)
          9          1          9       94.173189                    1_GWF-(36,1,94)       32.242636                    1_GWF-(4,1,100)
         10          1         10       78.605096                    1_GWF-(40,1,93)       35.067908                     1_GWF-(6,1,99)
         11          1         11       76.575308                    1_GWF-(45,1,92)       26.716792                     1_GWF-(3,1,81)
         12          1         12       73.457697                    1_GWF-(50,1,91)       29.779704                    1_GWF-(3,1,100)
         13          1         13       63.908286                    1_GWF-(54,1,90)       22.498480                     1_GWF-(5,1,99)
         14          1         14       64.494273                    1_GWF-(59,1,91)      -18.321436                    1_GWF-(3,1,100)
         15          1         15       58.588274                    1_GWF-(64,1,90)       22.352062                    1_GWF-(3,1,100)
         16          1         16       54.411191                    1_GWF-(69,1,89)      -15.551659                     1_GWF-(3,1,81)
         17          1         17       53.790865                    1_GWF-(74,1,90)      -20.723899                    1_GWF-(3,1,100)
         18          1         18       48.094284                    1_GWF-(79,1,89)      -17.158485                     1_GWF-(5,1,99)
         19          1         19       47.145440                    1_GWF-(84,1,90)      -11.974937                     1_GWF-(3,1,97)
         20          1         20       44.635801                    1_GWF-(89,1,89)      -17.657500                    1_GWF-(3,1,100)
         21          1         21       41.145584                    1_GWF-(94,1,88)      -10.013172                     1_GWF-(5,1,99)
         22          1         22       40.920293                   1_GWF-(100,1,89)       14.570721                    1_GWF-(3,1,100)
         23          1         23       37.582763                   1_GWF-(105,1,88)       12.113825                     1_GWF-(5,1,99)
         24          1         24       36.440641                   1_GWF-(110,1,89)       8.6850843                     1_GWF-(3,1,97)
         25          1         25       35.271486                   1_GWF-(115,1,88)       13.753597                    1_GWF-(3,1,100)
         26          1         26       32.725027                   1_GWF-(120,1,89)       8.0056311                     1_GWF-(5,1,99)
         27          1         27       32.515275                   1_GWF-(125,1,88)      -10.360297                    1_GWF-(3,1,100)
         28          1         28       30.493622                   1_GWF-(130,1,88)      -10.498365                     1_GWF-(4,1,99)
         29          1         29       29.408831                   1_GWF-(135,1,88)      -6.3672535                     1_GWF-(3,1,97)
         30          1         30       28.802564                   1_GWF-(140,1,87)      -10.675271                    1_GWF-(3,1,100)
         31          1         31       27.050059                   1_GWF-(146,1,88)      -6.7829195                     1_GWF-(4,1,99)
         32          1         32       27.045821                   1_GWF-(150,1,87)       7.7679389                    1_GWF-(3,1,100)
         33          1         33       26.369602                   1_GWF-(156,1,87)       9.1982132                     1_GWF-(4,1,99)
         34          1         34       27.074825                   1_GWF-(160,1,87)      -5.3901062                     1_GWF-(4,1,81)
         35          1         35       30.436514                   1_GWF-(165,1,87)       10.085889                    1_GWF-(3,1,100)
         36          1         36       36.946107                   1_GWF-(170,1,87)       8.1246922                     1_GWF-(4,1,99)
         37          1         37       54.630212                   1_GWF-(175,1,90)      -11.383788                    1_GWF-(3,1,100)
         38          1         38       89.216296                   1_GWF-(182,1,94)      -19.136904                     1_GWF-(4,1,99)
         39          1         39       149.01464                   1_GWF-(200,1,98)       13.629548                     1_GWF-(4,1,81)
         40          1         40       187.66207                   1_GWF-(200,1,95)       21.512963                     1_GWF-(4,1,99)
         41          1         41       130.87712                   1_GWF-(200,1,92)      -8.5423619                     1_GWF-(4,1,99)
         42          1         42       57.481309                   1_GWF-(200,1,83)       7.4429922                    1_GWF-(3,1,100)
         43          1         43       20.619609                   1_GWF-(200,1,76)       4.5669118                     1_GWF-(4,1,99)
         44          1         44       9.5309638                   1_GWF-(200,1,73)      -2.0939404                     1_GWF-(4,1,80)
         45          1         45       8.0047635                   1_GWF-(200,1,59)      -3.6714323                     1_GWF-(4,1,99)
         46          1         46       9.9399486                   1_GWF-(200,1,58)       2.1386595                     1_GWF-(8,1,98)
         47          1         47       9.5467504                    1_GWF-(200,1,1)      -2.6239221                    1_GWF-(3,1,100)
         48          1         48       6.5465903                    1_GWF-(200,1,2)      -2.2457089                     1_GWF-(4,1,99)
         49          1         49       5.7195970                    1_GWF-(200,1,2)       1.5545654                     1_GWF-(4,1,80)
         50          1         50       8.7738263                   1_GWF-(185,1,13)       3.4294992                     1_GWF-(4,1,99)
         51          1         51       11.310066                   1_GWF-(199,1,11)      -1.5743888                     1_GWF-(4,1,80)
         52          1         52       9.9190360                   1_GWF-(200,1,13)      -2.0034493                     1_GWF-(4,1,99)
         53          1         53       9.5704421                   1_GWF-(200,1,13)       2.4247570                     1_GWF-(4,1,99)
         54          1         54       11.945042                   1_GWF-(200,1,14)      -1.7656206                     1_GWF-(4,1,80)
         55          1         55       9.3803088                   1_GWF-(200,1,13)      -2.5012529                     1_GWF-(4,1,99)
         56          1         56       7.4535389                    1_GWF-(200,1,2)      -1.1578067                    1_GWF-(4,1,100)
         57          1         57       10.594096                    1_GWF-(200,1,2)       2.3044406                     1_GWF-(4,1,99)
         58          1         58       11.771822                    1_GWF-(200,1,1)      -2.0250755                     1_GWF-(4,1,99)
         59          1         59       7.7612476                    1_GWF-(191,1,2)       1.1947393                     1_GWF-(4,1,79)
         60          1         60       7.6596330                    1_GWF-(185,1,1)       2.4554138                     1_GWF-(4,1,99)
         61          1         61       8.7334717                    1_GWF-(181,1,2)      -1.2046605                     1_GWF-(4,1,79)
         62          1         62       6.9494091                    1_GWF-(173,1,1)      -1.6101514                     1_GWF-(4,1,99)
         63          1         63       6.8180265                    1_GWF-(167,1,2)       1.7865026                     1_GWF-(4,1,99)
         64          1         64       8.6781594                    1_GWF-(161,1,1)      -1.2313787                     1_GWF-(4,1,79)
         65          1         65       7.1066631                    1_GWF-(158,1,2)      -1.7889243                     1_GWF-(4,1,99)
         66          1         66       6.8749261                    1_GWF-(149,1,1)       1.0447190                     1_GWF-(4,1,79)
         67          1         67       8.1879291                    1_GWF-(147,1,2)       1.7737132                     1_GWF-(4,1,99)
         68          1         68       6.3574639                    1_GWF-(141,1,1)      -1.1714854                     1_GWF-(4,1,99)
         69          1         69       6.2045635                    1_GWF-(136,1,2)       1.0407355                     1_GWF-(4,1,79)
         70          1         70       6.5327022                    1_GWF-(131,1,1)       1.6626683                     1_GWF-(4,1,99)
         71          1         71       4.9385964                    1_GWF-(127,1,2)     -0.78501825                     1_GWF-(4,1,79)
         72          1         72       5.4206243                    1_GWF-(116,1,2)      -1.5454152                     1_GWF-(4,1,99)
         73          1         73       5.9521217                    1_GWF-(185,1,2)       1.0441152                     1_GWF-(4,1,99)
         74          1         74       5.3300949                    1_GWF-(180,1,1)     -0.86464435                     1_GWF-(4,1,79)
         75          1         75       6.2974472                    1_GWF-(175,1,2)      -1.6778607                     1_GWF-(4,1,99)
         76          1         76       5.7004290                    1_GWF-(172,1,1)      0.75463634                     1_GWF-(4,1,79)
         77          1         77       4.1724537                     1_GWF-(88,1,2)       1.1790917                     1_GWF-(4,1,99)
         78          1         78       3.6414916                     1_GWF-(81,1,1)     -0.61955268                     1_GWF-(4,1,99)
         79          1         79       2.2984903                    1_GWF-(125,1,1)      0.40600574                     1_GWF-(4,1,95)
         80          1         80       1.5241671                    1_GWF-(121,1,2)      0.62473853                     1_GWF-(4,1,99)
         81          1         81       1.2767783                     1_GWF-(35,1,1)     -0.27898100                     1_GWF-(4,1,78)
         82          1         82       1.0001193                    1_GWF-(29,1,32)     -0.38229100                     1_GWF-(4,1,99)
         83          1         83      -1.1291254                    1_GWF-(28,1,69)      0.22995821                     1_GWF-(4,1,99)
         84          1         84      -1.0567212                    1_GWF-(23,1,70)     -0.18301886                     1_GWF-(5,1,99)
         85          1         85     -0.78443931                    1_GWF-(24,1,70)     -0.25061865                     1_GWF-(4,1,99)
         86          1         86     -0.61598099                    1_GWF-(20,1,68)      0.11830860                     1_GWF-(4,1,78)
         87          1         87      0.41518904                    1_GWF-(47,1,34)      0.14793556                     1_GWF-(4,1,99)
         88          1         88     -0.42677027                    1_GWF-(46,1,70)  9.79260631E-02                     1_GWF-(6,1,99)
         89          1         89     -0.42720248                    1_GWF-(49,1,65)  8.86283172E-02                     1_GWF-(5,1,99)
         90          1         90      0.40275572                    1_GWF-(40,1,98)      0.12070420                     1_GWF-(4,1,99)
         91          1         91      0.39957126                    1_GWF-(37,1,98) -5.94224931E-02                     1_GWF-(4,1,78)
         92          1         92     -0.28825559                    1_GWF-(39,1,58) -7.30154316E-02                     1_GWF-(4,1,99)
         93          1         93     -0.26737660                    1_GWF-(41,1,57) -5.32218111E-02                     1_GWF-(6,1,99)
         94          1         94     -0.21510090                    1_GWF-(43,1,56) -4.19931633E-02                     1_GWF-(5,1,99)
         95          1         95     -0.17319639                    1_GWF-(54,1,55) -5.73882052E-02                     1_GWF-(4,1,99)
         96          1         96     -0.18421477                    1_GWF-(58,1,57)  3.57724153E-02                    1_GWF-(10,1,97)
         97          1         97      0.15834244                    1_GWF-(76,1,98)  4.44431600E-02                     1_GWF-(4,1,99)
         98          1         98      0.17202505                    1_GWF-(73,1,98)  3.47620279E-02                     1_GWF-(6,1,99)
         99          1         99     -0.12368281                    1_GWF-(75,1,58)  2.19929563E-02                     1_GWF-(5,1,99)
        100          1        100 -8.84209069E-02                    1_GWF-(77,1,57)  2.84664403E-02                     1_GWF-(4,1,99)
        101          2          1  2.30283975E-02                   1_GWF-(183,1,54) -9.78805487E-03                     1_GWF-(4,1,99)
        102          2          2 -4.43832738E-02                    1_GWF-(82,1,46) -2.42684759E-02                     1_GWF-(4,1,99)
        103          2          3 -6.76708875E-02                    1_GWF-(87,1,47)  2.46197888E-02                     1_GWF-(4,1,99)
        104          2          4 -6.33855789E-02                    1_GWF-(88,1,45) -8.74203995E-03                   1_GWF-(199,1,52)
        105          2          5 -6.74231464E-02                    1_GWF-(83,1,43) -2.59075318E-02                     1_GWF-(4,1,99)
        106          2          6 -5.51195164E-02                    1_GWF-(84,1,44)  9.24906668E-03                     1_GWF-(4,1,99)
        107          2          7 -4.62456888E-02                    1_GWF-(77,1,43)  1.64667699E-02                     1_GWF-(4,1,99)
        108          2          8 -4.49974689E-02                   1_GWF-(125,1,62) -1.83606843E-02                     1_GWF-(4,1,99)
        109          2          9  4.66473252E-02                    1_GWF-(100,1,2) -6.97243177E-03                   1_GWF-(199,1,61)
        110          2         10  5.73785825E-02                     1_GWF-(98,1,1)  2.05637812E-02                     1_GWF-(4,1,99)
        111          2         11  5.32386425E-02                    1_GWF-(111,1,2)  9.61511122E-03                     1_GWF-(6,1,99)
        112          2         12  5.80702250E-02                    1_GWF-(105,1,3)  1.27772369E-02                    1_GWF-(3,1,100)
        113          2         13  5.04934190E-02                    1_GWF-(103,1,2)  1.58734722E-02                     1_GWF-(4,1,99)
        114          2         14  4.52250301E-02                    1_GWF-(103,1,1) -6.67579128E-03                    1_GWF-(26,1,73)
        115          2         15 -4.59379877E-02                   1_GWF-(147,1,46) -1.78697511E-02                     1_GWF-(4,1,99)
        116          2         16 -3.77304213E-02                   1_GWF-(161,1,44) -8.84899016E-03                     1_GWF-(6,1,99)
        117          2         17  3.46358710E-02                     1_GWF-(85,1,4)  9.65622276E-03                     1_GWF-(4,1,99)
        118          2         18  2.69481920E-02                     1_GWF-(87,1,3) -1.07957374E-02                     1_GWF-(4,1,99)
        119          2         19 -2.42099656E-02                   1_GWF-(179,1,56)  4.46773558E-03                    1_GWF-(20,1,72)
        120          2         20  2.58057603E-02                    1_GWF-(187,1,1)  1.05571248E-02                     1_GWF-(4,1,99)
        121          2         21 -2.71032987E-02                   1_GWF-(190,1,56) -5.89630989E-03                     1_GWF-(4,1,99)
        122          2         22 -2.52774858E-02                   1_GWF-(189,1,53) -5.98514312E-03                     1_GWF-(4,1,99)
        123          2         23 -2.58170354E-02                   1_GWF-(200,1,56)  7.58231188E-03                     1_GWF-(4,1,99)
        124          2         24 -2.11568170E-02                   1_GWF-(191,1,49) -3.18074647E-03                    1_GWF-(10,1,74)
        125          2         25 -1.94750292E-02                   1_GWF-(198,1,50) -6.27074879E-03                     1_GWF-(4,1,99)
        126          2         26 -1.86914842E-02                   1_GWF-(200,1,49)  3.18678011E-03                     1_GWF-(4,1,99)
        127          2         27  1.55397079E-02                   1_GWF-(198,1,10)  3.31983845E-03                     1_GWF-(4,1,99)
        128          2         28  1.67392373E-02                    1_GWF-(193,1,9) -5.37625914E-03                     1_GWF-(4,1,99)
        129          2         29  1.48758150E-02                    1_GWF-(200,1,6) -1.88043597E-03                     1_GWF-(8,1,76)
        130          2         30  1.40539541E-02                    1_GWF-(196,1,1)  4.68202918E-03                     1_GWF-(4,1,99)
        131          2         31  1.37084012E-02                    1_GWF-(189,1,2)  2.53388245E-03                     1_GWF-(6,1,99)
        132          2         32  1.21231746E-02                    1_GWF-(184,1,3) -2.37315127E-03                     1_GWF-(4,1,99)
        133          2         33  1.03422800E-02                    1_GWF-(185,1,2)  3.10694271E-03                     1_GWF-(4,1,99)
        134          2         34  9.42043766E-03                    1_GWF-(200,1,3)  1.33599308E-03                     1_GWF-(8,1,76)
        135          2         35  6.86389293E-03                    1_GWF-(198,1,2) -2.37661038E-03                     1_GWF-(4,1,99)
        136          2         36  5.55509471E-03                    1_GWF-(200,1,1)  1.07779076E-03                     1_GWF-(9,1,97)
        137          2         37  3.50775704E-03                    1_GWF-(193,1,2)  1.26038957E-03                     1_GWF-(4,1,99)
        138          2         38  2.65334586E-03                    1_GWF-(150,1,1) -1.13227822E-03                     1_GWF-(4,1,99)
        139          2         39  1.96705506E-03                    1_GWF-(153,1,2)  4.95007989E-04                    1_GWF-(10,1,75)
        140          2         40  1.63660332E-03                    1_GWF-(156,1,1)  9.53721928E-04                     1_GWF-(4,1,99)
        141          2         41  1.42551192E-03                    1_GWF-(130,1,2) -3.93673270E-04                     1_GWF-(9,1,97)
        142          2         42  1.28743425E-03                    1_GWF-(126,1,1) -4.86827433E-04                     1_GWF-(4,1,99)
        143          2         43  1.24970849E-03                    1_GWF-(124,1,2)  5.61849746E-04                     1_GWF-(4,1,99)
        144          2         44  1.10357212E-03                    1_GWF-(117,1,3)  2.24674696E-04                     1_GWF-(8,1,76)
        145          2         45  9.00110562E-04                    1_GWF-(120,1,2) -4.41553717E-04                     1_GWF-(4,1,99)
        146          3          1  2.39608024E-04                    1_GWF-(124,1,1)  1.37578453E-04                     1_GWF-(4,1,99)
 --------------------------------------------------------------------------------------------------------------------------------------



 MEMORY MANAGER TOTAL STORAGE BY DATA TYPE, IN MEGABYTES
 -------------------------------
                    ALLOCATED   
 DATA TYPE           MEMORY     
 -------------------------------
 Character        6.55500000E-03
 Logical          4.80000000E-05
 Integer          3.5379800     
 Real             8.5027520     
 -------------------------------
 Total            12.047335     
 Virtual          0.0000000     
 -------------------------------


 
 Run end date and time (yyyy/mm/dd hh:mm:ss): 2025/05/22 14:49:45
 Elapsed run time:  4.300 Seconds
 Normal termination of simulation.
