                                   MODFLOW 6
                U.S. GEOLOGICAL SURVEY MODULAR HYDROLOGIC MODEL
                          GROUNDWATER FLOW MODEL (GWF)
                            VERSION 6.6.0 12/20/2024

   MODFLOW 6 compiled Dec 31 2024 17:08:41 with Intel(R) Fortran Intel(R) 64
   Compiler Classic for applications running on Intel(R) 64, Version 2021.7.0
                             Build 20220726_000000

This software has been approved for release by the U.S. Geological 
Survey (USGS). Although the software has been subjected to rigorous 
review, the USGS reserves the right to update the software as needed 
pursuant to further analysis and review. No warranty, expressed or 
implied, is made by the USGS or the U.S. Government as to the 
functionality of the software and related material nor shall the 
fact of release constitute any such warranty. Furthermore, the 
software is released on condition that neither the USGS nor the U.S. 
Government shall be held liable for any damages resulting from its 
authorized or unauthorized use. Also refer to the USGS Water 
Resources Software User Rights Notice for complete use, copyright, 
and distribution information.


As a work of the United States Government, this USGS product is 
in the public domain within the United States. You can copy, 
modify, distribute, and perform the work, even for commercial 
purposes, all without asking permission. Additionally, USGS 
waives copyright and related rights in the work worldwide 
through CC0 1.0 Universal Public Domain Dedication 
(https://creativecommons.org/publicdomain/zero/1.0/).

The following GNU Lesser General Public License (LGPL) libraries
are used in this USGS product:

    SPARSKIT version 2.0
      ilut, luson, and qsplit 
      (https://www-users.cse.umn.edu/~saad/software/SPARSKIT/)

    RCM - Reverse Cuthill McKee Ordering
      (https://people.math.sc.edu/Burkardt/f_src/rcm/rcm.html)

    BLAS - Basic Linear Algebra Subprograms Level 1
      (https://people.math.sc.edu/Burkardt/f_src/blas1_d/blas1_d.html)

    SPARSEKIT - Sparse Matrix Utility Package
      amux, dperm, dvperm, rperm, and cperm
      (https://people.sc.fsu.edu/~jburkardt/f77_src/sparsekit/sparsekit.html)

The following BSD-3 License libraries are used in this USGS product:

    Modern Fortran DAG Library
      Copyright (c) 2018, Jacob Williams
      All rights reserved.
      (https://github.com/jacobwilliams/daglib)

MODFLOW 6 compiler options: -Ilinux/obj_mf6 -O2 -no-heap-arrays -fpe0
-traceback -Qdiag-disable:7416 -Qdiag-disable:7025 -Qdiag-disable:5268 -fpp
-module linux/mod_mf6/ -c -o linux/obj_mf6/compilerversion.o

System command used to initiate simulation:
/mnt/c/Users/saulm/Documents/GitHub/mf6Voronoi/examples/bin/mf6

MODFLOW was compiled using uniform precision.

Real Variables
  KIND: 8
  TINY (smallest non-zero value):    2.225074-308
  HUGE (largest value):    1.797693+308
  PRECISION: 15
  SIZE IN BITS: 64

Integer Variables
  KIND: 4
  HUGE (largest value): 2147483647
  SIZE IN BITS: 32

Long Integer Variables
  KIND: 8
  HUGE (largest value): 9223372036854775807
  SIZE IN BITS: 64

Logical Variables
  KIND: 4
  SIZE IN BITS: 32
 
 NAMEFILE OPTIONS:
    FLOWS WILL BE SAVED TO BUDGET FILE SPECIFIED IN OUTPUT CONTROL
 END NAMEFILE OPTIONS:

 DIS -- STRUCTURED GRID DISCRETIZATION PACKAGE, VERSION 2 : 3/27/2014 - INPUT READ FROM MEMPATH: __INPUT__/TOTH/DIS                                


 NPF -- NODE PROPERTY FLOW PACKAGE, VERSION 1, 3/30/2015 INPUT READ FROM MEMPATH: __INPUT__/TOTH/NPF                                


 IC -- Initial Conditions Package, Version 8, 3/28/2015 input read from mempath: __INPUT__/TOTH/IC                                 


 Setting Discretization Options
 End Setting Discretization Options

 Setting Discretization Dimensions
    NLAY = 200
    NROW = 1
    NCOL = 100
 End Setting Discretization Dimensions

 Setting Discretization Griddata
    DELR set from input file
    DELC set from input file
    TOP set from input file
    BOTM set from input file
 End Setting Discretization Griddata

 Setting NPF Options
    Specific discharge will be calculated at cell centers and written to DATA-SPDIS in budget file when requested.
 End Setting NPF Options

 Setting NPF Griddata
    ICELLTYPE set from input file
    K set from input file
    K33 not provided.  Setting K33 = K.
    K22 not provided.  Setting K22 = K.
 End Setting NPF Griddata


 CHD   -- CHD PACKAGE, VERSION 8, 2/22/2014 INPUT READ FROM MEMPATH: __INPUT__/TOTH/CHD_0                              

 PROCESSING CHD BASE OPTIONS
 END OF CHD BASE OPTIONS

 PROCESSING CHD BASE DIMENSIONS
    MAXBOUND =     100
 END OF CHD BASE DIMENSIONS
    STRT set from input file
    BINARY GRID INFORMATION WILL BE WRITTEN TO:
      UNIT NUMBER: 1011
      FILE NAME: toth.dis.grb

 OPENED toth.dis.grb
 FILE TYPE:DATA(BINARY)   UNIT 1011   STATUS:REPLACE             
 FORMAT:UNFORMATTED            ACCESS:STREAM              
 ACTION:READWRITE           

      THE LAST TIME STEP WILL BE PRINTED
      THE LAST TIME STEP WILL BE PRINTED
 # File generated by Flopy version 3.9.2 on 05/22/2025 at 14:49:41.

 PROCESSING OC OPTIONS

    BUDGET INFORMATION WILL BE WRITTEN TO:
      UNIT NUMBER: 1012
      FILE NAME: toth.bud

 OPENED toth.bud
 FILE TYPE:DATA(BINARY)   UNIT 1012   STATUS:REPLACE             
 FORMAT:UNFORMATTED            ACCESS:STREAM              
 ACTION:READWRITE           

    HEAD INFORMATION WILL BE WRITTEN TO:
      UNIT NUMBER: 1013
      FILE NAME: toth.hds

 OPENED toth.hds
 FILE TYPE:DATA(BINARY)   UNIT 1013   STATUS:REPLACE             
 FORMAT:UNFORMATTED            ACCESS:STREAM              
 ACTION:READWRITE           

 END OF OC OPTIONS

start timestep kper="1" kstp="1" mode="normal"


 BEGIN READING OUTPUT CONTROL FOR STRESS PERIOD 1
      ALL TIME STEPS WILL BE SAVED
      ALL TIME STEPS WILL BE SAVED
      ALL TIME STEPS WILL BE PRINTED
      ALL TIME STEPS WILL BE PRINTED

 END READING OUTPUT CONTROL FOR STRESS PERIOD 1

 SLN_1 INNER ITERATION SUMMARY
 --------------------------------------------------------------------------------------------------------------------------------------
      TOTAL      OUTER      INNER                                                            MAXIMUM                                   
  ITERATION  ITERATION  ITERATION  MAXIMUM CHANGE      MAXIMUM CHANGE MODEL-(CELLID)        RESIDUAL    MAXIMUM RESIDUAL MODEL-(CELLID)
 --------------------------------------------------------------------------------------------------------------------------------------
          1          1          1       894.80700                    1_GWF-(2,1,100)       347.90088                     1_GWF-(2,1,82)
          2          1          2       389.83836                     1_GWF-(6,1,99)       151.76604                     1_GWF-(3,1,99)
          3          1          3       268.11201                    1_GWF-(10,1,98)      -123.40233                     1_GWF-(3,1,99)
          4          1          4       219.35628                    1_GWF-(12,1,99)       98.150648                     1_GWF-(8,1,99)
          5          1          5       158.23309                    1_GWF-(9,1,100)      -59.584328                     1_GWF-(8,1,99)
          6          1          6       138.78451                    1_GWF-(22,1,97)      -59.303524                     1_GWF-(3,1,99)
          7          1          7       109.77857                    1_GWF-(27,1,96)       53.562746                     1_GWF-(6,1,99)
          8          1          8       93.986769                    1_GWF-(31,1,95)       38.189898                     1_GWF-(3,1,81)
          9          1          9       94.173189                    1_GWF-(36,1,94)       32.242636                    1_GWF-(4,1,100)
         10          1         10       78.605096                    1_GWF-(40,1,93)       35.067908                     1_GWF-(6,1,99)
         11          1         11       76.575308                    1_GWF-(45,1,92)       26.716792                     1_GWF-(3,1,81)
         12          1         12       73.457697                    1_GWF-(50,1,91)       29.779704                    1_GWF-(3,1,100)
         13          1         13       63.908286                    1_GWF-(54,1,90)       22.498480                     1_GWF-(5,1,99)
         14          1         14       64.494273                    1_GWF-(59,1,91)      -18.321436                    1_GWF-(3,1,100)
         15          1         15       58.588274                    1_GWF-(64,1,90)       22.352062                    1_GWF-(3,1,100)
         16          1         16       54.411191                    1_GWF-(69,1,89)      -15.551659                     1_GWF-(3,1,81)
         17          1         17       53.790865                    1_GWF-(74,1,90)      -20.723899                    1_GWF-(3,1,100)
         18          1         18       48.094284                    1_GWF-(79,1,89)      -17.158485                     1_GWF-(5,1,99)
         19          1         19       47.145440                    1_GWF-(84,1,90)      -11.974937                     1_GWF-(3,1,97)
         20          1         20       44.635801                    1_GWF-(89,1,89)      -17.657500                    1_GWF-(3,1,100)
         21          1         21       41.145584                    1_GWF-(94,1,88)      -10.013172                     1_GWF-(5,1,99)
         22          1         22       40.920293                   1_GWF-(100,1,89)       14.570721                    1_GWF-(3,1,100)
         23          1         23       37.582763                   1_GWF-(105,1,88)       12.113825                     1_GWF-(5,1,99)
         24          1         24       36.440641                   1_GWF-(110,1,89)       8.6850843                     1_GWF-(3,1,97)
         25          1         25       35.271486                   1_GWF-(115,1,88)       13.753597                    1_GWF-(3,1,100)
         26          1         26       32.725027                   1_GWF-(120,1,89)       8.0056311                     1_GWF-(5,1,99)
         27          1         27       32.515275                   1_GWF-(125,1,88)      -10.360297                    1_GWF-(3,1,100)
         28          1         28       30.493622                   1_GWF-(130,1,88)      -10.498365                     1_GWF-(4,1,99)
         29          1         29       29.408831                   1_GWF-(135,1,88)      -6.3672535                     1_GWF-(3,1,97)
         30          1         30       28.802564                   1_GWF-(140,1,87)      -10.675271                    1_GWF-(3,1,100)
         31          1         31       27.050059                   1_GWF-(146,1,88)      -6.7829195                     1_GWF-(4,1,99)
         32          1         32       27.045821                   1_GWF-(150,1,87)       7.7679389                    1_GWF-(3,1,100)
         33          1         33       26.369602                   1_GWF-(156,1,87)       9.1982132                     1_GWF-(4,1,99)
         34          1         34       27.074825                   1_GWF-(160,1,87)      -5.3901062                     1_GWF-(4,1,81)
         35          1         35       30.436514                   1_GWF-(165,1,87)       10.085889                    1_GWF-(3,1,100)
         36          1         36       36.946107                   1_GWF-(170,1,87)       8.1246922                     1_GWF-(4,1,99)
         37          1         37       54.630212                   1_GWF-(175,1,90)      -11.383788                    1_GWF-(3,1,100)
         38          1         38       89.216296                   1_GWF-(182,1,94)      -19.136904                     1_GWF-(4,1,99)
         39          1         39       149.01464                   1_GWF-(200,1,98)       13.629548                     1_GWF-(4,1,81)
         40          1         40       187.66207                   1_GWF-(200,1,95)       21.512963                     1_GWF-(4,1,99)
         41          1         41       130.87712                   1_GWF-(200,1,92)      -8.5423619                     1_GWF-(4,1,99)
         42          1         42       57.481309                   1_GWF-(200,1,83)       7.4429922                    1_GWF-(3,1,100)
         43          1         43       20.619609                   1_GWF-(200,1,76)       4.5669118                     1_GWF-(4,1,99)
         44          1         44       9.5309638                   1_GWF-(200,1,73)      -2.0939404                     1_GWF-(4,1,80)
         45          1         45       8.0047635                   1_GWF-(200,1,59)      -3.6714323                     1_GWF-(4,1,99)
         46          1         46       9.9399486                   1_GWF-(200,1,58)       2.1386595                     1_GWF-(8,1,98)
         47          1         47       9.5467504                    1_GWF-(200,1,1)      -2.6239221                    1_GWF-(3,1,100)
         48          1         48       6.5465903                    1_GWF-(200,1,2)      -2.2457089                     1_GWF-(4,1,99)
         49          1         49       5.7195970                    1_GWF-(200,1,2)       1.5545654                     1_GWF-(4,1,80)
         50          1         50       8.7738263                   1_GWF-(185,1,13)       3.4294992                     1_GWF-(4,1,99)
         51          1         51       11.310066                   1_GWF-(199,1,11)      -1.5743888                     1_GWF-(4,1,80)
         52          1         52       9.9190360                   1_GWF-(200,1,13)      -2.0034493                     1_GWF-(4,1,99)
         53          1         53       9.5704421                   1_GWF-(200,1,13)       2.4247570                     1_GWF-(4,1,99)
         54          1         54       11.945042                   1_GWF-(200,1,14)      -1.7656206                     1_GWF-(4,1,80)
         55          1         55       9.3803088                   1_GWF-(200,1,13)      -2.5012529                     1_GWF-(4,1,99)
         56          1         56       7.4535389                    1_GWF-(200,1,2)      -1.1578067                    1_GWF-(4,1,100)
         57          1         57       10.594096                    1_GWF-(200,1,2)       2.3044406                     1_GWF-(4,1,99)
         58          1         58       11.771822                    1_GWF-(200,1,1)      -2.0250755                     1_GWF-(4,1,99)
         59          1         59       7.7612476                    1_GWF-(191,1,2)       1.1947393                     1_GWF-(4,1,79)
         60          1         60       7.6596330                    1_GWF-(185,1,1)       2.4554138                     1_GWF-(4,1,99)
         61          1         61       8.7334717                    1_GWF-(181,1,2)      -1.2046605                     1_GWF-(4,1,79)
         62          1         62       6.9494091                    1_GWF-(173,1,1)      -1.6101514                     1_GWF-(4,1,99)
         63          1         63       6.8180265                    1_GWF-(167,1,2)       1.7865026                     1_GWF-(4,1,99)
         64          1         64       8.6781594                    1_GWF-(161,1,1)      -1.2313787                     1_GWF-(4,1,79)
         65          1         65       7.1066631                    1_GWF-(158,1,2)      -1.7889243                     1_GWF-(4,1,99)
         66          1         66       6.8749261                    1_GWF-(149,1,1)       1.0447190                     1_GWF-(4,1,79)
         67          1         67       8.1879291                    1_GWF-(147,1,2)       1.7737132                     1_GWF-(4,1,99)
         68          1         68       6.3574639                    1_GWF-(141,1,1)      -1.1714854                     1_GWF-(4,1,99)
         69          1         69       6.2045635                    1_GWF-(136,1,2)       1.0407355                     1_GWF-(4,1,79)
         70          1         70       6.5327022                    1_GWF-(131,1,1)       1.6626683                     1_GWF-(4,1,99)
         71          1         71       4.9385964                    1_GWF-(127,1,2)     -0.78501825                     1_GWF-(4,1,79)
         72          1         72       5.4206243                    1_GWF-(116,1,2)      -1.5454152                     1_GWF-(4,1,99)
         73          1         73       5.9521217                    1_GWF-(185,1,2)       1.0441152                     1_GWF-(4,1,99)
         74          1         74       5.3300949                    1_GWF-(180,1,1)     -0.86464435                     1_GWF-(4,1,79)
         75          1         75       6.2974472                    1_GWF-(175,1,2)      -1.6778607                     1_GWF-(4,1,99)
         76          1         76       5.7004290                    1_GWF-(172,1,1)      0.75463634                     1_GWF-(4,1,79)
         77          1         77       4.1724537                     1_GWF-(88,1,2)       1.1790917                     1_GWF-(4,1,99)
         78          1         78       3.6414916                     1_GWF-(81,1,1)     -0.61955268                     1_GWF-(4,1,99)
         79          1         79       2.2984903                    1_GWF-(125,1,1)      0.40600574                     1_GWF-(4,1,95)
         80          1         80       1.5241671                    1_GWF-(121,1,2)      0.62473853                     1_GWF-(4,1,99)
         81          1         81       1.2767783                     1_GWF-(35,1,1)     -0.27898100                     1_GWF-(4,1,78)
         82          1         82       1.0001193                    1_GWF-(29,1,32)     -0.38229100                     1_GWF-(4,1,99)
         83          1         83      -1.1291254                    1_GWF-(28,1,69)      0.22995821                     1_GWF-(4,1,99)
         84          1         84      -1.0567212                    1_GWF-(23,1,70)     -0.18301886                     1_GWF-(5,1,99)
         85          1         85     -0.78443931                    1_GWF-(24,1,70)     -0.25061865                     1_GWF-(4,1,99)
         86          1         86     -0.61598099                    1_GWF-(20,1,68)      0.11830860                     1_GWF-(4,1,78)
         87          1         87      0.41518904                    1_GWF-(47,1,34)      0.14793556                     1_GWF-(4,1,99)
         88          1         88     -0.42677027                    1_GWF-(46,1,70)  9.79260631E-02                     1_GWF-(6,1,99)
         89          1         89     -0.42720248                    1_GWF-(49,1,65)  8.86283172E-02                     1_GWF-(5,1,99)
         90          1         90      0.40275572                    1_GWF-(40,1,98)      0.12070420                     1_GWF-(4,1,99)
         91          1         91      0.39957126                    1_GWF-(37,1,98) -5.94224931E-02                     1_GWF-(4,1,78)
         92          1         92     -0.28825559                    1_GWF-(39,1,58) -7.30154316E-02                     1_GWF-(4,1,99)
         93          1         93     -0.26737660                    1_GWF-(41,1,57) -5.32218111E-02                     1_GWF-(6,1,99)
         94          1         94     -0.21510090                    1_GWF-(43,1,56) -4.19931633E-02                     1_GWF-(5,1,99)
         95          1         95     -0.17319639                    1_GWF-(54,1,55) -5.73882052E-02                     1_GWF-(4,1,99)
         96          1         96     -0.18421477                    1_GWF-(58,1,57)  3.57724153E-02                    1_GWF-(10,1,97)
         97          1         97      0.15834244                    1_GWF-(76,1,98)  4.44431600E-02                     1_GWF-(4,1,99)
         98          1         98      0.17202505                    1_GWF-(73,1,98)  3.47620279E-02                     1_GWF-(6,1,99)
         99          1         99     -0.12368281                    1_GWF-(75,1,58)  2.19929563E-02                     1_GWF-(5,1,99)
        100          1        100 -8.84209069E-02                    1_GWF-(77,1,57)  2.84664403E-02                     1_GWF-(4,1,99)
        101          2          1  2.30283975E-02                   1_GWF-(183,1,54) -9.78805487E-03                     1_GWF-(4,1,99)
        102          2          2 -4.43832738E-02                    1_GWF-(82,1,46) -2.42684759E-02                     1_GWF-(4,1,99)
        103          2          3 -6.76708875E-02                    1_GWF-(87,1,47)  2.46197888E-02                     1_GWF-(4,1,99)
        104          2          4 -6.33855789E-02                    1_GWF-(88,1,45) -8.74203995E-03                   1_GWF-(199,1,52)
        105          2          5 -6.74231464E-02                    1_GWF-(83,1,43) -2.59075318E-02                     1_GWF-(4,1,99)
        106          2          6 -5.51195164E-02                    1_GWF-(84,1,44)  9.24906668E-03                     1_GWF-(4,1,99)
        107          2          7 -4.62456888E-02                    1_GWF-(77,1,43)  1.64667699E-02                     1_GWF-(4,1,99)
        108          2          8 -4.49974689E-02                   1_GWF-(125,1,62) -1.83606843E-02                     1_GWF-(4,1,99)
        109          2          9  4.66473252E-02                    1_GWF-(100,1,2) -6.97243177E-03                   1_GWF-(199,1,61)
        110          2         10  5.73785825E-02                     1_GWF-(98,1,1)  2.05637812E-02                     1_GWF-(4,1,99)
        111          2         11  5.32386425E-02                    1_GWF-(111,1,2)  9.61511122E-03                     1_GWF-(6,1,99)
        112          2         12  5.80702250E-02                    1_GWF-(105,1,3)  1.27772369E-02                    1_GWF-(3,1,100)
        113          2         13  5.04934190E-02                    1_GWF-(103,1,2)  1.58734722E-02                     1_GWF-(4,1,99)
        114          2         14  4.52250301E-02                    1_GWF-(103,1,1) -6.67579128E-03                    1_GWF-(26,1,73)
        115          2         15 -4.59379877E-02                   1_GWF-(147,1,46) -1.78697511E-02                     1_GWF-(4,1,99)
        116          2         16 -3.77304213E-02                   1_GWF-(161,1,44) -8.84899016E-03                     1_GWF-(6,1,99)
        117          2         17  3.46358710E-02                     1_GWF-(85,1,4)  9.65622276E-03                     1_GWF-(4,1,99)
        118          2         18  2.69481920E-02                     1_GWF-(87,1,3) -1.07957374E-02                     1_GWF-(4,1,99)
        119          2         19 -2.42099656E-02                   1_GWF-(179,1,56)  4.46773558E-03                    1_GWF-(20,1,72)
        120          2         20  2.58057603E-02                    1_GWF-(187,1,1)  1.05571248E-02                     1_GWF-(4,1,99)
        121          2         21 -2.71032987E-02                   1_GWF-(190,1,56) -5.89630989E-03                     1_GWF-(4,1,99)
        122          2         22 -2.52774858E-02                   1_GWF-(189,1,53) -5.98514312E-03                     1_GWF-(4,1,99)
        123          2         23 -2.58170354E-02                   1_GWF-(200,1,56)  7.58231188E-03                     1_GWF-(4,1,99)
        124          2         24 -2.11568170E-02                   1_GWF-(191,1,49) -3.18074647E-03                    1_GWF-(10,1,74)
        125          2         25 -1.94750292E-02                   1_GWF-(198,1,50) -6.27074879E-03                     1_GWF-(4,1,99)
        126          2         26 -1.86914842E-02                   1_GWF-(200,1,49)  3.18678011E-03                     1_GWF-(4,1,99)
        127          2         27  1.55397079E-02                   1_GWF-(198,1,10)  3.31983845E-03                     1_GWF-(4,1,99)
        128          2         28  1.67392373E-02                    1_GWF-(193,1,9) -5.37625914E-03                     1_GWF-(4,1,99)
        129          2         29  1.48758150E-02                    1_GWF-(200,1,6) -1.88043597E-03                     1_GWF-(8,1,76)
        130          2         30  1.40539541E-02                    1_GWF-(196,1,1)  4.68202918E-03                     1_GWF-(4,1,99)
        131          2         31  1.37084012E-02                    1_GWF-(189,1,2)  2.53388245E-03                     1_GWF-(6,1,99)
        132          2         32  1.21231746E-02                    1_GWF-(184,1,3) -2.37315127E-03                     1_GWF-(4,1,99)
        133          2         33  1.03422800E-02                    1_GWF-(185,1,2)  3.10694271E-03                     1_GWF-(4,1,99)
        134          2         34  9.42043766E-03                    1_GWF-(200,1,3)  1.33599308E-03                     1_GWF-(8,1,76)
        135          2         35  6.86389293E-03                    1_GWF-(198,1,2) -2.37661038E-03                     1_GWF-(4,1,99)
        136          2         36  5.55509471E-03                    1_GWF-(200,1,1)  1.07779076E-03                     1_GWF-(9,1,97)
        137          2         37  3.50775704E-03                    1_GWF-(193,1,2)  1.26038957E-03                     1_GWF-(4,1,99)
        138          2         38  2.65334586E-03                    1_GWF-(150,1,1) -1.13227822E-03                     1_GWF-(4,1,99)
        139          2         39  1.96705506E-03                    1_GWF-(153,1,2)  4.95007989E-04                    1_GWF-(10,1,75)
        140          2         40  1.63660332E-03                    1_GWF-(156,1,1)  9.53721928E-04                     1_GWF-(4,1,99)
        141          2         41  1.42551192E-03                    1_GWF-(130,1,2) -3.93673270E-04                     1_GWF-(9,1,97)
        142          2         42  1.28743425E-03                    1_GWF-(126,1,1) -4.86827433E-04                     1_GWF-(4,1,99)
        143          2         43  1.24970849E-03                    1_GWF-(124,1,2)  5.61849746E-04                     1_GWF-(4,1,99)
        144          2         44  1.10357212E-03                    1_GWF-(117,1,3)  2.24674696E-04                     1_GWF-(8,1,76)
        145          2         45  9.00110562E-04                    1_GWF-(120,1,2) -4.41553717E-04                     1_GWF-(4,1,99)
        146          3          1  2.39608024E-04                    1_GWF-(124,1,1)  1.37578453E-04                     1_GWF-(4,1,99)
 --------------------------------------------------------------------------------------------------------------------------------------


 UBDSV1 SAVING     FLOW-JA-FACE ON UNIT   1012 AT TIME STEP      1, STRESS PERIOD      1
 UBDSV06 SAVING       DATA-SPDIS IN MODEL TOTH             PACKAGE NPF             CONNECTED TO MODEL TOTH             PACKAGE NPF              ON UNIT   1012 AT TIME STEP      1, STRESS PERIOD      1
 UBDSV06 SAVING              CHD IN MODEL TOTH             PACKAGE TOTH            CONNECTED TO MODEL TOTH             PACKAGE CHD_0            ON UNIT   1012 AT TIME STEP      1, STRESS PERIOD      1
1
  HEAD IN LAYER   1 AT END OF TIME STEP   1 IN STRESS PERIOD    1
  ---------------------------------------------------------------------------

 ........................................................................................................................................................................................................................................................................................................................................................................................................................................................................................................................................................................................................................................................................................................................................................................................................................................................................................................................................................................................................................................
   1   1.0030E+04  1.0089E+04  1.0143E+04  1.0189E+04  1.0226E+04  1.0252E+04  1.0265E+04  1.0265E+04  1.0254E+04  1.0232E+04
       1.0201E+04  1.0164E+04  1.0124E+04  1.0084E+04  1.0048E+04  1.0017E+04   9995.       9984.       9985.       9999.    
       1.0024E+04  1.0062E+04  1.0108E+04  1.0163E+04  1.0221E+04  1.0282E+04  1.0340E+04  1.0394E+04  1.0440E+04  1.0477E+04
       1.0502E+04  1.0515E+04  1.0515E+04  1.0503E+04  1.0480E+04  1.0450E+04  1.0413E+04  1.0373E+04  1.0333E+04  1.0296E+04
       1.0266E+04  1.0245E+04  1.0234E+04  1.0235E+04  1.0249E+04  1.0275E+04  1.0313E+04  1.0360E+04  1.0414E+04  1.0473E+04
       1.0533E+04  1.0592E+04  1.0645E+04  1.0691E+04  1.0728E+04  1.0752E+04  1.0765E+04  1.0764E+04  1.0752E+04  1.0729E+04
       1.0698E+04  1.0661E+04  1.0621E+04  1.0581E+04  1.0545E+04  1.0515E+04  1.0494E+04  1.0483E+04  1.0485E+04  1.0499E+04
       1.0526E+04  1.0564E+04  1.0611E+04  1.0666E+04  1.0725E+04  1.0785E+04  1.0843E+04  1.0897E+04  1.0942E+04  1.0978E+04
       1.1003E+04  1.1014E+04  1.1014E+04  1.1001E+04  1.0978E+04  1.0947E+04  1.0910E+04  1.0869E+04  1.0830E+04  1.0794E+04
       1.0764E+04  1.0743E+04  1.0733E+04  1.0735E+04  1.0749E+04  1.0776E+04  1.0815E+04  1.0862E+04  1.0917E+04  1.0976E+04
1
  HEAD IN LAYER   2 AT END OF TIME STEP   1 IN STRESS PERIOD    1
  ---------------------------------------------------------------------------

 ........................................................................................................................................................................................................................................................................................................................................................................................................................................................................................................................................................................................................................................................................................................................................................................................................................................................................................................................................................................................................................................
   1   1.0050E+04  1.0097E+04  1.0145E+04  1.0188E+04  1.0222E+04  1.0245E+04  1.0258E+04  1.0258E+04  1.0248E+04  1.0227E+04
       1.0198E+04  1.0164E+04  1.0127E+04  1.0090E+04  1.0056E+04  1.0028E+04  1.0008E+04   9998.       9999.      1.0012E+04
       1.0037E+04  1.0073E+04  1.0117E+04  1.0169E+04  1.0224E+04  1.0281E+04  1.0337E+04  1.0388E+04  1.0432E+04  1.0467E+04
       1.0491E+04  1.0504E+04  1.0504E+04  1.0494E+04  1.0473E+04  1.0444E+04  1.0410E+04  1.0373E+04  1.0337E+04  1.0303E+04
       1.0275E+04  1.0255E+04  1.0246E+04  1.0247E+04  1.0261E+04  1.0286E+04  1.0322E+04  1.0367E+04  1.0419E+04  1.0474E+04
       1.0532E+04  1.0587E+04  1.0638E+04  1.0682E+04  1.0716E+04  1.0740E+04  1.0752E+04  1.0752E+04  1.0742E+04  1.0721E+04
       1.0692E+04  1.0658E+04  1.0621E+04  1.0584E+04  1.0550E+04  1.0523E+04  1.0503E+04  1.0494E+04  1.0496E+04  1.0510E+04
       1.0536E+04  1.0572E+04  1.0617E+04  1.0669E+04  1.0724E+04  1.0782E+04  1.0837E+04  1.0888E+04  1.0931E+04  1.0965E+04
       1.0989E+04  1.1000E+04  1.1000E+04  1.0989E+04  1.0968E+04  1.0939E+04  1.0904E+04  1.0867E+04  1.0830E+04  1.0796E+04
       1.0769E+04  1.0749E+04  1.0740E+04  1.0742E+04  1.0756E+04  1.0781E+04  1.0816E+04  1.0860E+04  1.0908E+04  1.0956E+04
1
  HEAD IN LAYER   3 AT END OF TIME STEP   1 IN STRESS PERIOD    1
  ---------------------------------------------------------------------------

 ........................................................................................................................................................................................................................................................................................................................................................................................................................................................................................................................................................................................................................................................................................................................................................................................................................................................................................................................................................................................................................................
   1   1.0067E+04  1.0105E+04  1.0148E+04  1.0186E+04  1.0218E+04  1.0240E+04  1.0251E+04  1.0252E+04  1.0242E+04  1.0223E+04
       1.0196E+04  1.0165E+04  1.0130E+04  1.0096E+04  1.0064E+04  1.0038E+04  1.0020E+04  1.0011E+04  1.0013E+04  1.0025E+04
       1.0049E+04  1.0083E+04  1.0125E+04  1.0174E+04  1.0227E+04  1.0281E+04  1.0334E+04  1.0382E+04  1.0424E+04  1.0458E+04
       1.0481E+04  1.0493E+04  1.0494E+04  1.0485E+04  1.0466E+04  1.0440E+04  1.0408E+04  1.0374E+04  1.0340E+04  1.0309E+04
       1.0283E+04  1.0265E+04  1.0257E+04  1.0259E+04  1.0272E+04  1.0297E+04  1.0331E+04  1.0374E+04  1.0423E+04  1.0476E+04
       1.0530E+04  1.0583E+04  1.0631E+04  1.0673E+04  1.0706E+04  1.0729E+04  1.0740E+04  1.0741E+04  1.0732E+04  1.0713E+04
       1.0686E+04  1.0655E+04  1.0620E+04  1.0586E+04  1.0555E+04  1.0530E+04  1.0512E+04  1.0504E+04  1.0507E+04  1.0520E+04
       1.0545E+04  1.0579E+04  1.0622E+04  1.0671E+04  1.0724E+04  1.0778E+04  1.0831E+04  1.0879E+04  1.0920E+04  1.0953E+04
       1.0976E+04  1.0987E+04  1.0987E+04  1.0977E+04  1.0958E+04  1.0931E+04  1.0899E+04  1.0864E+04  1.0830E+04  1.0799E+04
       1.0773E+04  1.0755E+04  1.0747E+04  1.0749E+04  1.0761E+04  1.0785E+04  1.0817E+04  1.0857E+04  1.0900E+04  1.0938E+04
1
  HEAD IN LAYER   4 AT END OF TIME STEP   1 IN STRESS PERIOD    1
  ---------------------------------------------------------------------------

 ........................................................................................................................................................................................................................................................................................................................................................................................................................................................................................................................................................................................................................................................................................................................................................................................................................................................................................................................................................................................................................................
   1   1.0082E+04  1.0113E+04  1.0150E+04  1.0185E+04  1.0214E+04  1.0235E+04  1.0245E+04  1.0246E+04  1.0237E+04  1.0219E+04
       1.0195E+04  1.0165E+04  1.0133E+04  1.0101E+04  1.0072E+04  1.0048E+04  1.0031E+04  1.0023E+04  1.0025E+04  1.0038E+04
       1.0061E+04  1.0093E+04  1.0133E+04  1.0180E+04  1.0230E+04  1.0281E+04  1.0331E+04  1.0377E+04  1.0417E+04  1.0449E+04
       1.0471E+04  1.0483E+04  1.0485E+04  1.0477E+04  1.0460E+04  1.0435E+04  1.0406E+04  1.0375E+04  1.0343E+04  1.0315E+04
       1.0291E+04  1.0275E+04  1.0268E+04  1.0270E+04  1.0283E+04  1.0307E+04  1.0339E+04  1.0380E+04  1.0426E+04  1.0477E+04
       1.0528E+04  1.0578E+04  1.0624E+04  1.0664E+04  1.0696E+04  1.0718E+04  1.0729E+04  1.0731E+04  1.0722E+04  1.0705E+04
       1.0681E+04  1.0652E+04  1.0620E+04  1.0589E+04  1.0560E+04  1.0537E+04  1.0521E+04  1.0514E+04  1.0516E+04  1.0530E+04
       1.0553E+04  1.0586E+04  1.0627E+04  1.0674E+04  1.0724E+04  1.0775E+04  1.0825E+04  1.0871E+04  1.0910E+04  1.0941E+04
       1.0963E+04  1.0974E+04  1.0975E+04  1.0966E+04  1.0948E+04  1.0923E+04  1.0894E+04  1.0862E+04  1.0830E+04  1.0801E+04
       1.0777E+04  1.0760E+04  1.0753E+04  1.0755E+04  1.0766E+04  1.0788E+04  1.0818E+04  1.0854E+04  1.0892E+04  1.0923E+04
1
  HEAD IN LAYER   5 AT END OF TIME STEP   1 IN STRESS PERIOD    1
  ---------------------------------------------------------------------------

 ........................................................................................................................................................................................................................................................................................................................................................................................................................................................................................................................................................................................................................................................................................................................................................................................................................................................................................................................................................................................................................................
   1   1.0095E+04  1.0121E+04  1.0153E+04  1.0185E+04  1.0211E+04  1.0230E+04  1.0240E+04  1.0241E+04  1.0232E+04  1.0216E+04
       1.0193E+04  1.0166E+04  1.0136E+04  1.0106E+04  1.0080E+04  1.0057E+04  1.0042E+04  1.0035E+04  1.0037E+04  1.0050E+04
       1.0072E+04  1.0102E+04  1.0141E+04  1.0185E+04  1.0232E+04  1.0281E+04  1.0329E+04  1.0372E+04  1.0410E+04  1.0441E+04
       1.0462E+04  1.0474E+04  1.0476E+04  1.0469E+04  1.0453E+04  1.0431E+04  1.0405E+04  1.0376E+04  1.0347E+04  1.0320E+04
       1.0299E+04  1.0284E+04  1.0278E+04  1.0281E+04  1.0293E+04  1.0316E+04  1.0347E+04  1.0386E+04  1.0430E+04  1.0478E+04
       1.0527E+04  1.0574E+04  1.0618E+04  1.0656E+04  1.0686E+04  1.0708E+04  1.0719E+04  1.0721E+04  1.0713E+04  1.0698E+04
       1.0675E+04  1.0649E+04  1.0620E+04  1.0591E+04  1.0564E+04  1.0543E+04  1.0528E+04  1.0522E+04  1.0526E+04  1.0539E+04
       1.0561E+04  1.0593E+04  1.0632E+04  1.0676E+04  1.0724E+04  1.0772E+04  1.0820E+04  1.0863E+04  1.0901E+04  1.0930E+04
       1.0951E+04  1.0962E+04  1.0963E+04  1.0955E+04  1.0939E+04  1.0916E+04  1.0889E+04  1.0859E+04  1.0830E+04  1.0803E+04
       1.0781E+04  1.0765E+04  1.0758E+04  1.0760E+04  1.0771E+04  1.0791E+04  1.0818E+04  1.0851E+04  1.0884E+04  1.0910E+04
1
  HEAD IN LAYER   6 AT END OF TIME STEP   1 IN STRESS PERIOD    1
  ---------------------------------------------------------------------------

 ........................................................................................................................................................................................................................................................................................................................................................................................................................................................................................................................................................................................................................................................................................................................................................................................................................................................................................................................................................................................................................................
   1   1.0106E+04  1.0128E+04  1.0156E+04  1.0185E+04  1.0209E+04  1.0226E+04  1.0235E+04  1.0236E+04  1.0228E+04  1.0213E+04
       1.0192E+04  1.0167E+04  1.0139E+04  1.0112E+04  1.0087E+04  1.0066E+04  1.0052E+04  1.0046E+04  1.0049E+04  1.0061E+04
       1.0082E+04  1.0111E+04  1.0148E+04  1.0190E+04  1.0235E+04  1.0281E+04  1.0326E+04  1.0368E+04  1.0404E+04  1.0433E+04
       1.0454E+04  1.0466E+04  1.0468E+04  1.0462E+04  1.0448E+04  1.0428E+04  1.0403E+04  1.0376E+04  1.0350E+04  1.0325E+04
       1.0306E+04  1.0292E+04  1.0287E+04  1.0290E+04  1.0303E+04  1.0325E+04  1.0354E+04  1.0391E+04  1.0434E+04  1.0479E+04
       1.0526E+04  1.0571E+04  1.0612E+04  1.0648E+04  1.0677E+04  1.0698E+04  1.0709E+04  1.0712E+04  1.0705E+04  1.0691E+04
       1.0671E+04  1.0646E+04  1.0619E+04  1.0593E+04  1.0568E+04  1.0549E+04  1.0536E+04  1.0531E+04  1.0534E+04  1.0547E+04
       1.0569E+04  1.0599E+04  1.0636E+04  1.0678E+04  1.0723E+04  1.0770E+04  1.0815E+04  1.0856E+04  1.0892E+04  1.0920E+04
       1.0940E+04  1.0951E+04  1.0952E+04  1.0945E+04  1.0930E+04  1.0909E+04  1.0884E+04  1.0856E+04  1.0829E+04  1.0804E+04
       1.0784E+04  1.0769E+04  1.0763E+04  1.0764E+04  1.0775E+04  1.0793E+04  1.0818E+04  1.0847E+04  1.0877E+04  1.0898E+04
1
  HEAD IN LAYER   7 AT END OF TIME STEP   1 IN STRESS PERIOD    1
  ---------------------------------------------------------------------------

 ........................................................................................................................................................................................................................................................................................................................................................................................................................................................................................................................................................................................................................................................................................................................................................................................................................................................................................................................................................................................................................................
   1   1.0116E+04  1.0134E+04  1.0159E+04  1.0185E+04  1.0207E+04  1.0223E+04  1.0231E+04  1.0232E+04  1.0225E+04  1.0211E+04
       1.0191E+04  1.0167E+04  1.0142E+04  1.0117E+04  1.0094E+04  1.0075E+04  1.0062E+04  1.0057E+04  1.0060E+04  1.0071E+04
       1.0092E+04  1.0120E+04  1.0155E+04  1.0194E+04  1.0237E+04  1.0281E+04  1.0324E+04  1.0364E+04  1.0398E+04  1.0426E+04
       1.0446E+04  1.0458E+04  1.0461E+04  1.0455E+04  1.0443E+04  1.0424E+04  1.0402E+04  1.0377E+04  1.0353E+04  1.0330E+04
       1.0312E+04  1.0300E+04  1.0296E+04  1.0300E+04  1.0312E+04  1.0333E+04  1.0361E+04  1.0397E+04  1.0437E+04  1.0480E+04
       1.0524E+04  1.0567E+04  1.0607E+04  1.0641E+04  1.0669E+04  1.0689E+04  1.0700E+04  1.0703E+04  1.0697E+04  1.0685E+04
       1.0666E+04  1.0643E+04  1.0619E+04  1.0594E+04  1.0572E+04  1.0554E+04  1.0543E+04  1.0538E+04  1.0542E+04  1.0555E+04
       1.0576E+04  1.0604E+04  1.0640E+04  1.0680E+04  1.0723E+04  1.0767E+04  1.0810E+04  1.0849E+04  1.0883E+04  1.0910E+04
       1.0929E+04  1.0940E+04  1.0942E+04  1.0936E+04  1.0922E+04  1.0903E+04  1.0879E+04  1.0854E+04  1.0828E+04  1.0805E+04
       1.0786E+04  1.0773E+04  1.0767E+04  1.0769E+04  1.0778E+04  1.0795E+04  1.0818E+04  1.0844E+04  1.0870E+04  1.0888E+04
1
  HEAD IN LAYER   8 AT END OF TIME STEP   1 IN STRESS PERIOD    1
  ---------------------------------------------------------------------------

 ........................................................................................................................................................................................................................................................................................................................................................................................................................................................................................................................................................................................................................................................................................................................................................................................................................................................................................................................................................................................................................................
   1   1.0125E+04  1.0140E+04  1.0162E+04  1.0185E+04  1.0205E+04  1.0220E+04  1.0228E+04  1.0228E+04  1.0222E+04  1.0209E+04
       1.0190E+04  1.0168E+04  1.0145E+04  1.0121E+04  1.0100E+04  1.0083E+04  1.0071E+04  1.0067E+04  1.0070E+04  1.0082E+04
       1.0101E+04  1.0128E+04  1.0161E+04  1.0199E+04  1.0240E+04  1.0282E+04  1.0322E+04  1.0360E+04  1.0393E+04  1.0420E+04
       1.0439E+04  1.0450E+04  1.0453E+04  1.0449E+04  1.0438E+04  1.0421E+04  1.0400E+04  1.0378E+04  1.0355E+04  1.0335E+04
       1.0319E+04  1.0308E+04  1.0304E+04  1.0308E+04  1.0320E+04  1.0340E+04  1.0368E+04  1.0402E+04  1.0440E+04  1.0481E+04
       1.0523E+04  1.0564E+04  1.0602E+04  1.0635E+04  1.0661E+04  1.0680E+04  1.0692E+04  1.0695E+04  1.0690E+04  1.0678E+04
       1.0662E+04  1.0641E+04  1.0618E+04  1.0596E+04  1.0576E+04  1.0559E+04  1.0549E+04  1.0545E+04  1.0549E+04  1.0562E+04
       1.0582E+04  1.0610E+04  1.0643E+04  1.0681E+04  1.0722E+04  1.0764E+04  1.0805E+04  1.0842E+04  1.0875E+04  1.0901E+04
       1.0919E+04  1.0930E+04  1.0932E+04  1.0926E+04  1.0914E+04  1.0896E+04  1.0875E+04  1.0851E+04  1.0828E+04  1.0806E+04
       1.0789E+04  1.0776E+04  1.0771E+04  1.0772E+04  1.0781E+04  1.0796E+04  1.0817E+04  1.0841E+04  1.0864E+04  1.0879E+04
1
  HEAD IN LAYER   9 AT END OF TIME STEP   1 IN STRESS PERIOD    1
  ---------------------------------------------------------------------------

 ........................................................................................................................................................................................................................................................................................................................................................................................................................................................................................................................................................................................................................................................................................................................................................................................................................................................................................................................................................................................................................................
   1   1.0133E+04  1.0146E+04  1.0165E+04  1.0186E+04  1.0204E+04  1.0217E+04  1.0225E+04  1.0225E+04  1.0219E+04  1.0207E+04
       1.0190E+04  1.0170E+04  1.0148E+04  1.0126E+04  1.0106E+04  1.0091E+04  1.0080E+04  1.0076E+04  1.0080E+04  1.0091E+04
       1.0110E+04  1.0136E+04  1.0167E+04  1.0203E+04  1.0242E+04  1.0282E+04  1.0321E+04  1.0357E+04  1.0388E+04  1.0414E+04
       1.0432E+04  1.0443E+04  1.0447E+04  1.0443E+04  1.0433E+04  1.0418E+04  1.0399E+04  1.0378E+04  1.0358E+04  1.0339E+04
       1.0324E+04  1.0315E+04  1.0312E+04  1.0316E+04  1.0328E+04  1.0348E+04  1.0374E+04  1.0406E+04  1.0443E+04  1.0482E+04
       1.0522E+04  1.0561E+04  1.0597E+04  1.0628E+04  1.0654E+04  1.0672E+04  1.0683E+04  1.0687E+04  1.0683E+04  1.0673E+04
       1.0657E+04  1.0638E+04  1.0618E+04  1.0597E+04  1.0579E+04  1.0564E+04  1.0555E+04  1.0552E+04  1.0556E+04  1.0568E+04
       1.0588E+04  1.0614E+04  1.0646E+04  1.0683E+04  1.0722E+04  1.0762E+04  1.0800E+04  1.0836E+04  1.0867E+04  1.0892E+04
       1.0910E+04  1.0920E+04  1.0922E+04  1.0918E+04  1.0907E+04  1.0890E+04  1.0870E+04  1.0848E+04  1.0827E+04  1.0807E+04
       1.0790E+04  1.0779E+04  1.0774E+04  1.0775E+04  1.0783E+04  1.0798E+04  1.0816E+04  1.0838E+04  1.0858E+04  1.0871E+04
1
  HEAD IN LAYER  10 AT END OF TIME STEP   1 IN STRESS PERIOD    1
  ---------------------------------------------------------------------------

 ........................................................................................................................................................................................................................................................................................................................................................................................................................................................................................................................................................................................................................................................................................................................................................................................................................................................................................................................................................................................................................................
   1   1.0140E+04  1.0151E+04  1.0168E+04  1.0187E+04  1.0203E+04  1.0215E+04  1.0222E+04  1.0222E+04  1.0216E+04  1.0205E+04
       1.0190E+04  1.0171E+04  1.0151E+04  1.0131E+04  1.0113E+04  1.0098E+04  1.0089E+04  1.0086E+04  1.0089E+04  1.0100E+04
       1.0118E+04  1.0143E+04  1.0173E+04  1.0207E+04  1.0244E+04  1.0282E+04  1.0319E+04  1.0353E+04  1.0384E+04  1.0408E+04
       1.0426E+04  1.0437E+04  1.0441E+04  1.0438E+04  1.0429E+04  1.0415E+04  1.0398E+04  1.0379E+04  1.0360E+04  1.0343E+04
       1.0330E+04  1.0322E+04  1.0319E+04  1.0324E+04  1.0336E+04  1.0355E+04  1.0380E+04  1.0410E+04  1.0445E+04  1.0483E+04
       1.0521E+04  1.0558E+04  1.0592E+04  1.0622E+04  1.0647E+04  1.0665E+04  1.0676E+04  1.0679E+04  1.0676E+04  1.0667E+04
       1.0653E+04  1.0636E+04  1.0617E+04  1.0599E+04  1.0582E+04  1.0569E+04  1.0560E+04  1.0558E+04  1.0563E+04  1.0575E+04
       1.0594E+04  1.0619E+04  1.0649E+04  1.0684E+04  1.0721E+04  1.0759E+04  1.0796E+04  1.0830E+04  1.0859E+04  1.0883E+04
       1.0900E+04  1.0910E+04  1.0913E+04  1.0909E+04  1.0899E+04  1.0884E+04  1.0866E+04  1.0846E+04  1.0826E+04  1.0807E+04
       1.0792E+04  1.0782E+04  1.0777E+04  1.0778E+04  1.0785E+04  1.0798E+04  1.0816E+04  1.0835E+04  1.0852E+04  1.0864E+04
1
  HEAD IN LAYER  11 AT END OF TIME STEP   1 IN STRESS PERIOD    1
  ---------------------------------------------------------------------------

 ........................................................................................................................................................................................................................................................................................................................................................................................................................................................................................................................................................................................................................................................................................................................................................................................................................................................................................................................................................................................................................................
   1   1.0146E+04  1.0156E+04  1.0171E+04  1.0188E+04  1.0202E+04  1.0213E+04  1.0219E+04  1.0220E+04  1.0214E+04  1.0204E+04
       1.0190E+04  1.0172E+04  1.0153E+04  1.0135E+04  1.0118E+04  1.0105E+04  1.0097E+04  1.0094E+04  1.0098E+04  1.0109E+04
       1.0126E+04  1.0150E+04  1.0179E+04  1.0211E+04  1.0247E+04  1.0283E+04  1.0318E+04  1.0351E+04  1.0379E+04  1.0403E+04
       1.0420E+04  1.0431E+04  1.0435E+04  1.0433E+04  1.0425E+04  1.0413E+04  1.0397E+04  1.0380E+04  1.0363E+04  1.0347E+04
       1.0335E+04  1.0328E+04  1.0326E+04  1.0331E+04  1.0343E+04  1.0361E+04  1.0385E+04  1.0415E+04  1.0448E+04  1.0483E+04
       1.0520E+04  1.0555E+04  1.0588E+04  1.0617E+04  1.0640E+04  1.0658E+04  1.0669E+04  1.0673E+04  1.0670E+04  1.0662E+04
       1.0650E+04  1.0634E+04  1.0617E+04  1.0600E+04  1.0585E+04  1.0573E+04  1.0565E+04  1.0564E+04  1.0569E+04  1.0580E+04
       1.0599E+04  1.0623E+04  1.0652E+04  1.0685E+04  1.0721E+04  1.0757E+04  1.0792E+04  1.0824E+04  1.0852E+04  1.0875E+04
       1.0892E+04  1.0902E+04  1.0905E+04  1.0901E+04  1.0892E+04  1.0879E+04  1.0862E+04  1.0843E+04  1.0825E+04  1.0807E+04
       1.0793E+04  1.0784E+04  1.0779E+04  1.0780E+04  1.0787E+04  1.0799E+04  1.0815E+04  1.0832E+04  1.0847E+04  1.0857E+04
1
  HEAD IN LAYER  12 AT END OF TIME STEP   1 IN STRESS PERIOD    1
  ---------------------------------------------------------------------------

 ........................................................................................................................................................................................................................................................................................................................................................................................................................................................................................................................................................................................................................................................................................................................................................................................................................................................................................................................................................................................................................................
   1   1.0152E+04  1.0161E+04  1.0174E+04  1.0189E+04  1.0202E+04  1.0212E+04  1.0217E+04  1.0218E+04  1.0213E+04  1.0203E+04
       1.0190E+04  1.0174E+04  1.0156E+04  1.0139E+04  1.0124E+04  1.0112E+04  1.0105E+04  1.0103E+04  1.0107E+04  1.0117E+04
       1.0134E+04  1.0157E+04  1.0184E+04  1.0215E+04  1.0249E+04  1.0283E+04  1.0317E+04  1.0348E+04  1.0375E+04  1.0398E+04
       1.0415E+04  1.0425E+04  1.0430E+04  1.0428E+04  1.0421E+04  1.0410E+04  1.0396E+04  1.0380E+04  1.0365E+04  1.0351E+04
       1.0340E+04  1.0334E+04  1.0333E+04  1.0338E+04  1.0349E+04  1.0367E+04  1.0390E+04  1.0418E+04  1.0450E+04  1.0484E+04
       1.0519E+04  1.0553E+04  1.0584E+04  1.0612E+04  1.0634E+04  1.0651E+04  1.0662E+04  1.0666E+04  1.0664E+04  1.0657E+04
       1.0646E+04  1.0632E+04  1.0616E+04  1.0601E+04  1.0587E+04  1.0576E+04  1.0570E+04  1.0569E+04  1.0574E+04  1.0586E+04
       1.0603E+04  1.0627E+04  1.0655E+04  1.0686E+04  1.0720E+04  1.0754E+04  1.0788E+04  1.0819E+04  1.0845E+04  1.0867E+04
       1.0883E+04  1.0893E+04  1.0896E+04  1.0894E+04  1.0886E+04  1.0873E+04  1.0858E+04  1.0841E+04  1.0823E+04  1.0808E+04
       1.0795E+04  1.0786E+04  1.0781E+04  1.0782E+04  1.0789E+04  1.0799E+04  1.0813E+04  1.0829E+04  1.0842E+04  1.0851E+04
1
  HEAD IN LAYER  13 AT END OF TIME STEP   1 IN STRESS PERIOD    1
  ---------------------------------------------------------------------------

 ........................................................................................................................................................................................................................................................................................................................................................................................................................................................................................................................................................................................................................................................................................................................................................................................................................................................................................................................................................................................................................................
   1   1.0158E+04  1.0165E+04  1.0176E+04  1.0190E+04  1.0202E+04  1.0211E+04  1.0216E+04  1.0216E+04  1.0211E+04  1.0202E+04
       1.0190E+04  1.0175E+04  1.0159E+04  1.0143E+04  1.0130E+04  1.0119E+04  1.0112E+04  1.0110E+04  1.0115E+04  1.0125E+04
       1.0141E+04  1.0163E+04  1.0189E+04  1.0219E+04  1.0251E+04  1.0284E+04  1.0316E+04  1.0345E+04  1.0372E+04  1.0393E+04
       1.0410E+04  1.0420E+04  1.0425E+04  1.0424E+04  1.0418E+04  1.0408E+04  1.0395E+04  1.0381E+04  1.0367E+04  1.0354E+04
       1.0345E+04  1.0339E+04  1.0339E+04  1.0344E+04  1.0356E+04  1.0373E+04  1.0395E+04  1.0422E+04  1.0452E+04  1.0485E+04
       1.0518E+04  1.0550E+04  1.0580E+04  1.0607E+04  1.0629E+04  1.0645E+04  1.0655E+04  1.0660E+04  1.0659E+04  1.0653E+04
       1.0643E+04  1.0630E+04  1.0616E+04  1.0602E+04  1.0589E+04  1.0580E+04  1.0575E+04  1.0574E+04  1.0580E+04  1.0591E+04
       1.0608E+04  1.0630E+04  1.0657E+04  1.0687E+04  1.0719E+04  1.0752E+04  1.0784E+04  1.0813E+04  1.0839E+04  1.0860E+04
       1.0876E+04  1.0885E+04  1.0889E+04  1.0886E+04  1.0879E+04  1.0868E+04  1.0854E+04  1.0838E+04  1.0822E+04  1.0807E+04
       1.0795E+04  1.0787E+04  1.0783E+04  1.0784E+04  1.0790E+04  1.0800E+04  1.0812E+04  1.0826E+04  1.0838E+04  1.0845E+04
1
  HEAD IN LAYER  14 AT END OF TIME STEP   1 IN STRESS PERIOD    1
  ---------------------------------------------------------------------------

 ........................................................................................................................................................................................................................................................................................................................................................................................................................................................................................................................................................................................................................................................................................................................................................................................................................................................................................................................................................................................................................................
   1   1.0162E+04  1.0169E+04  1.0179E+04  1.0191E+04  1.0202E+04  1.0210E+04  1.0214E+04  1.0214E+04  1.0210E+04  1.0202E+04
       1.0190E+04  1.0177E+04  1.0162E+04  1.0148E+04  1.0135E+04  1.0125E+04  1.0119E+04  1.0118E+04  1.0122E+04  1.0132E+04
       1.0148E+04  1.0169E+04  1.0194E+04  1.0223E+04  1.0253E+04  1.0284E+04  1.0315E+04  1.0343E+04  1.0368E+04  1.0389E+04
       1.0405E+04  1.0415E+04  1.0420E+04  1.0420E+04  1.0415E+04  1.0406E+04  1.0395E+04  1.0382E+04  1.0369E+04  1.0358E+04
       1.0349E+04  1.0345E+04  1.0345E+04  1.0350E+04  1.0362E+04  1.0378E+04  1.0400E+04  1.0425E+04  1.0455E+04  1.0486E+04
       1.0517E+04  1.0548E+04  1.0577E+04  1.0602E+04  1.0623E+04  1.0639E+04  1.0649E+04  1.0654E+04  1.0654E+04  1.0649E+04
       1.0640E+04  1.0628E+04  1.0615E+04  1.0603E+04  1.0592E+04  1.0583E+04  1.0579E+04  1.0579E+04  1.0584E+04  1.0595E+04
       1.0612E+04  1.0633E+04  1.0659E+04  1.0688E+04  1.0719E+04  1.0750E+04  1.0780E+04  1.0808E+04  1.0833E+04  1.0853E+04
       1.0868E+04  1.0877E+04  1.0881E+04  1.0879E+04  1.0873E+04  1.0863E+04  1.0850E+04  1.0835E+04  1.0821E+04  1.0807E+04
       1.0796E+04  1.0788E+04  1.0785E+04  1.0786E+04  1.0791E+04  1.0800E+04  1.0811E+04  1.0823E+04  1.0834E+04  1.0840E+04
1
  HEAD IN LAYER  15 AT END OF TIME STEP   1 IN STRESS PERIOD    1
  ---------------------------------------------------------------------------

 ........................................................................................................................................................................................................................................................................................................................................................................................................................................................................................................................................................................................................................................................................................................................................................................................................................................................................................................................................................................................................................................
   1   1.0167E+04  1.0172E+04  1.0181E+04  1.0192E+04  1.0202E+04  1.0209E+04  1.0213E+04  1.0213E+04  1.0209E+04  1.0202E+04
       1.0191E+04  1.0178E+04  1.0165E+04  1.0152E+04  1.0140E+04  1.0131E+04  1.0126E+04  1.0125E+04  1.0130E+04  1.0140E+04
       1.0155E+04  1.0175E+04  1.0199E+04  1.0226E+04  1.0255E+04  1.0285E+04  1.0314E+04  1.0341E+04  1.0365E+04  1.0385E+04
       1.0401E+04  1.0411E+04  1.0416E+04  1.0416E+04  1.0412E+04  1.0404E+04  1.0394E+04  1.0382E+04  1.0371E+04  1.0361E+04
       1.0354E+04  1.0350E+04  1.0350E+04  1.0356E+04  1.0367E+04  1.0383E+04  1.0404E+04  1.0429E+04  1.0457E+04  1.0486E+04
       1.0516E+04  1.0546E+04  1.0573E+04  1.0598E+04  1.0618E+04  1.0633E+04  1.0644E+04  1.0649E+04  1.0649E+04  1.0645E+04
       1.0637E+04  1.0626E+04  1.0615E+04  1.0604E+04  1.0594E+04  1.0586E+04  1.0582E+04  1.0583E+04  1.0589E+04  1.0600E+04
       1.0616E+04  1.0636E+04  1.0661E+04  1.0688E+04  1.0718E+04  1.0748E+04  1.0776E+04  1.0803E+04  1.0827E+04  1.0846E+04
       1.0861E+04  1.0870E+04  1.0874E+04  1.0873E+04  1.0867E+04  1.0858E+04  1.0846E+04  1.0833E+04  1.0819E+04  1.0807E+04
       1.0796E+04  1.0789E+04  1.0786E+04  1.0787E+04  1.0791E+04  1.0799E+04  1.0810E+04  1.0821E+04  1.0830E+04  1.0836E+04
1
  HEAD IN LAYER  16 AT END OF TIME STEP   1 IN STRESS PERIOD    1
  ---------------------------------------------------------------------------

 ........................................................................................................................................................................................................................................................................................................................................................................................................................................................................................................................................................................................................................................................................................................................................................................................................................................................................................................................................................................................................................................
   1   1.0171E+04  1.0176E+04  1.0184E+04  1.0193E+04  1.0202E+04  1.0209E+04  1.0212E+04  1.0212E+04  1.0209E+04  1.0202E+04
       1.0192E+04  1.0180E+04  1.0168E+04  1.0155E+04  1.0145E+04  1.0137E+04  1.0132E+04  1.0132E+04  1.0137E+04  1.0146E+04
       1.0161E+04  1.0180E+04  1.0203E+04  1.0229E+04  1.0257E+04  1.0285E+04  1.0313E+04  1.0339E+04  1.0363E+04  1.0382E+04
       1.0397E+04  1.0407E+04  1.0412E+04  1.0413E+04  1.0409E+04  1.0402E+04  1.0393E+04  1.0383E+04  1.0373E+04  1.0364E+04
       1.0357E+04  1.0354E+04  1.0356E+04  1.0361E+04  1.0372E+04  1.0388E+04  1.0408E+04  1.0432E+04  1.0458E+04  1.0487E+04
       1.0516E+04  1.0544E+04  1.0570E+04  1.0594E+04  1.0613E+04  1.0628E+04  1.0638E+04  1.0644E+04  1.0644E+04  1.0641E+04
       1.0634E+04  1.0625E+04  1.0615E+04  1.0604E+04  1.0595E+04  1.0589E+04  1.0586E+04  1.0587E+04  1.0593E+04  1.0604E+04
       1.0619E+04  1.0639E+04  1.0663E+04  1.0689E+04  1.0717E+04  1.0745E+04  1.0773E+04  1.0799E+04  1.0821E+04  1.0840E+04
       1.0854E+04  1.0863E+04  1.0867E+04  1.0866E+04  1.0861E+04  1.0853E+04  1.0842E+04  1.0830E+04  1.0818E+04  1.0806E+04
       1.0797E+04  1.0790E+04  1.0787E+04  1.0788E+04  1.0792E+04  1.0799E+04  1.0808E+04  1.0818E+04  1.0827E+04  1.0832E+04
1
  HEAD IN LAYER  17 AT END OF TIME STEP   1 IN STRESS PERIOD    1
  ---------------------------------------------------------------------------

 ........................................................................................................................................................................................................................................................................................................................................................................................................................................................................................................................................................................................................................................................................................................................................................................................................................................................................................................................................................................................................................................
   1   1.0175E+04  1.0179E+04  1.0186E+04  1.0195E+04  1.0202E+04  1.0208E+04  1.0212E+04  1.0212E+04  1.0208E+04  1.0202E+04
       1.0193E+04  1.0182E+04  1.0170E+04  1.0159E+04  1.0150E+04  1.0142E+04  1.0138E+04  1.0139E+04  1.0143E+04  1.0153E+04
       1.0167E+04  1.0186E+04  1.0208E+04  1.0232E+04  1.0259E+04  1.0286E+04  1.0313E+04  1.0338E+04  1.0360E+04  1.0379E+04
       1.0393E+04  1.0403E+04  1.0409E+04  1.0410E+04  1.0407E+04  1.0401E+04  1.0393E+04  1.0384E+04  1.0375E+04  1.0367E+04
       1.0361E+04  1.0359E+04  1.0360E+04  1.0367E+04  1.0377E+04  1.0392E+04  1.0412E+04  1.0435E+04  1.0460E+04  1.0487E+04
       1.0515E+04  1.0542E+04  1.0567E+04  1.0590E+04  1.0609E+04  1.0623E+04  1.0633E+04  1.0639E+04  1.0640E+04  1.0637E+04
       1.0631E+04  1.0623E+04  1.0614E+04  1.0605E+04  1.0597E+04  1.0592E+04  1.0589E+04  1.0591E+04  1.0597E+04  1.0607E+04
       1.0622E+04  1.0642E+04  1.0664E+04  1.0689E+04  1.0716E+04  1.0743E+04  1.0770E+04  1.0794E+04  1.0816E+04  1.0834E+04
       1.0847E+04  1.0856E+04  1.0861E+04  1.0860E+04  1.0856E+04  1.0848E+04  1.0839E+04  1.0827E+04  1.0816E+04  1.0805E+04
       1.0797E+04  1.0791E+04  1.0788E+04  1.0788E+04  1.0792E+04  1.0799E+04  1.0807E+04  1.0816E+04  1.0823E+04  1.0828E+04
1
  HEAD IN LAYER  18 AT END OF TIME STEP   1 IN STRESS PERIOD    1
  ---------------------------------------------------------------------------

 ........................................................................................................................................................................................................................................................................................................................................................................................................................................................................................................................................................................................................................................................................................................................................................................................................................................................................................................................................................................................................................................
   1   1.0178E+04  1.0182E+04  1.0188E+04  1.0196E+04  1.0203E+04  1.0208E+04  1.0211E+04  1.0211E+04  1.0208E+04  1.0202E+04
       1.0194E+04  1.0184E+04  1.0173E+04  1.0163E+04  1.0154E+04  1.0148E+04  1.0144E+04  1.0145E+04  1.0150E+04  1.0159E+04
       1.0173E+04  1.0191E+04  1.0212E+04  1.0236E+04  1.0261E+04  1.0287E+04  1.0312E+04  1.0336E+04  1.0358E+04  1.0376E+04
       1.0390E+04  1.0400E+04  1.0405E+04  1.0407E+04  1.0405E+04  1.0399E+04  1.0392E+04  1.0384E+04  1.0376E+04  1.0369E+04
       1.0365E+04  1.0363E+04  1.0365E+04  1.0371E+04  1.0382E+04  1.0397E+04  1.0415E+04  1.0437E+04  1.0462E+04  1.0488E+04
       1.0514E+04  1.0540E+04  1.0564E+04  1.0586E+04  1.0604E+04  1.0619E+04  1.0629E+04  1.0634E+04  1.0636E+04  1.0634E+04
       1.0629E+04  1.0622E+04  1.0614E+04  1.0605E+04  1.0599E+04  1.0594E+04  1.0592E+04  1.0594E+04  1.0600E+04  1.0611E+04
       1.0625E+04  1.0644E+04  1.0666E+04  1.0690E+04  1.0715E+04  1.0741E+04  1.0766E+04  1.0790E+04  1.0811E+04  1.0828E+04
       1.0841E+04  1.0850E+04  1.0854E+04  1.0854E+04  1.0851E+04  1.0844E+04  1.0835E+04  1.0825E+04  1.0814E+04  1.0805E+04
       1.0796E+04  1.0791E+04  1.0788E+04  1.0789E+04  1.0792E+04  1.0798E+04  1.0806E+04  1.0813E+04  1.0820E+04  1.0824E+04
1
  HEAD IN LAYER  19 AT END OF TIME STEP   1 IN STRESS PERIOD    1
  ---------------------------------------------------------------------------

 ........................................................................................................................................................................................................................................................................................................................................................................................................................................................................................................................................................................................................................................................................................................................................................................................................................................................................................................................................................................................................................................
   1   1.0181E+04  1.0185E+04  1.0190E+04  1.0197E+04  1.0204E+04  1.0208E+04  1.0211E+04  1.0211E+04  1.0208E+04  1.0202E+04
       1.0195E+04  1.0186E+04  1.0176E+04  1.0167E+04  1.0159E+04  1.0153E+04  1.0150E+04  1.0151E+04  1.0156E+04  1.0165E+04
       1.0178E+04  1.0195E+04  1.0216E+04  1.0238E+04  1.0263E+04  1.0288E+04  1.0312E+04  1.0335E+04  1.0355E+04  1.0373E+04
       1.0387E+04  1.0396E+04  1.0402E+04  1.0404E+04  1.0402E+04  1.0398E+04  1.0392E+04  1.0385E+04  1.0378E+04  1.0372E+04
       1.0368E+04  1.0367E+04  1.0369E+04  1.0376E+04  1.0386E+04  1.0401E+04  1.0419E+04  1.0440E+04  1.0463E+04  1.0488E+04
       1.0514E+04  1.0539E+04  1.0562E+04  1.0583E+04  1.0600E+04  1.0614E+04  1.0624E+04  1.0630E+04  1.0632E+04  1.0630E+04
       1.0626E+04  1.0620E+04  1.0613E+04  1.0606E+04  1.0600E+04  1.0596E+04  1.0595E+04  1.0597E+04  1.0604E+04  1.0614E+04
       1.0628E+04  1.0646E+04  1.0667E+04  1.0690E+04  1.0714E+04  1.0739E+04  1.0763E+04  1.0786E+04  1.0806E+04  1.0822E+04
       1.0835E+04  1.0844E+04  1.0848E+04  1.0849E+04  1.0846E+04  1.0840E+04  1.0832E+04  1.0822E+04  1.0813E+04  1.0804E+04
       1.0796E+04  1.0791E+04  1.0789E+04  1.0789E+04  1.0792E+04  1.0797E+04  1.0804E+04  1.0811E+04  1.0817E+04  1.0821E+04
1
  HEAD IN LAYER  20 AT END OF TIME STEP   1 IN STRESS PERIOD    1
  ---------------------------------------------------------------------------

 ........................................................................................................................................................................................................................................................................................................................................................................................................................................................................................................................................................................................................................................................................................................................................................................................................................................................................................................................................................................................................................................
   1   1.0185E+04  1.0187E+04  1.0193E+04  1.0199E+04  1.0204E+04  1.0209E+04  1.0211E+04  1.0211E+04  1.0208E+04  1.0203E+04
       1.0196E+04  1.0187E+04  1.0179E+04  1.0170E+04  1.0163E+04  1.0158E+04  1.0156E+04  1.0157E+04  1.0162E+04  1.0171E+04
       1.0184E+04  1.0200E+04  1.0220E+04  1.0241E+04  1.0265E+04  1.0288E+04  1.0312E+04  1.0334E+04  1.0353E+04  1.0370E+04
       1.0384E+04  1.0393E+04  1.0399E+04  1.0401E+04  1.0401E+04  1.0397E+04  1.0392E+04  1.0386E+04  1.0380E+04  1.0374E+04
       1.0371E+04  1.0371E+04  1.0374E+04  1.0380E+04  1.0390E+04  1.0404E+04  1.0422E+04  1.0442E+04  1.0465E+04  1.0489E+04
       1.0513E+04  1.0537E+04  1.0559E+04  1.0579E+04  1.0597E+04  1.0610E+04  1.0620E+04  1.0626E+04  1.0628E+04  1.0627E+04
       1.0624E+04  1.0619E+04  1.0612E+04  1.0606E+04  1.0601E+04  1.0598E+04  1.0598E+04  1.0600E+04  1.0607E+04  1.0617E+04
       1.0631E+04  1.0648E+04  1.0668E+04  1.0690E+04  1.0713E+04  1.0737E+04  1.0760E+04  1.0782E+04  1.0801E+04  1.0817E+04
       1.0830E+04  1.0838E+04  1.0843E+04  1.0843E+04  1.0841E+04  1.0835E+04  1.0828E+04  1.0820E+04  1.0811E+04  1.0803E+04
       1.0796E+04  1.0791E+04  1.0789E+04  1.0789E+04  1.0792E+04  1.0797E+04  1.0803E+04  1.0809E+04  1.0814E+04  1.0817E+04
1
  HEAD IN LAYER  21 AT END OF TIME STEP   1 IN STRESS PERIOD    1
  ---------------------------------------------------------------------------

 ........................................................................................................................................................................................................................................................................................................................................................................................................................................................................................................................................................................................................................................................................................................................................................................................................................................................................................................................................................................................................................................
   1   1.0187E+04  1.0190E+04  1.0195E+04  1.0200E+04  1.0205E+04  1.0209E+04  1.0211E+04  1.0211E+04  1.0208E+04  1.0204E+04
       1.0197E+04  1.0189E+04  1.0181E+04  1.0173E+04  1.0167E+04  1.0163E+04  1.0161E+04  1.0162E+04  1.0167E+04  1.0176E+04
       1.0189E+04  1.0205E+04  1.0223E+04  1.0244E+04  1.0266E+04  1.0289E+04  1.0312E+04  1.0333E+04  1.0352E+04  1.0368E+04
       1.0381E+04  1.0391E+04  1.0397E+04  1.0399E+04  1.0399E+04  1.0396E+04  1.0392E+04  1.0386E+04  1.0381E+04  1.0377E+04
       1.0374E+04  1.0374E+04  1.0377E+04  1.0384E+04  1.0394E+04  1.0408E+04  1.0425E+04  1.0444E+04  1.0466E+04  1.0489E+04
       1.0513E+04  1.0536E+04  1.0557E+04  1.0576E+04  1.0593E+04  1.0606E+04  1.0616E+04  1.0622E+04  1.0625E+04  1.0624E+04
       1.0622E+04  1.0617E+04  1.0612E+04  1.0607E+04  1.0602E+04  1.0600E+04  1.0600E+04  1.0603E+04  1.0609E+04  1.0619E+04
       1.0633E+04  1.0649E+04  1.0669E+04  1.0690E+04  1.0713E+04  1.0735E+04  1.0757E+04  1.0778E+04  1.0797E+04  1.0812E+04
       1.0824E+04  1.0833E+04  1.0837E+04  1.0838E+04  1.0836E+04  1.0831E+04  1.0825E+04  1.0817E+04  1.0809E+04  1.0801E+04
       1.0795E+04  1.0791E+04  1.0789E+04  1.0789E+04  1.0791E+04  1.0796E+04  1.0801E+04  1.0807E+04  1.0812E+04  1.0814E+04
1
  HEAD IN LAYER  22 AT END OF TIME STEP   1 IN STRESS PERIOD    1
  ---------------------------------------------------------------------------

 ........................................................................................................................................................................................................................................................................................................................................................................................................................................................................................................................................................................................................................................................................................................................................................................................................................................................................................................................................................................................................................................
   1   1.0190E+04  1.0192E+04  1.0196E+04  1.0201E+04  1.0206E+04  1.0209E+04  1.0211E+04  1.0211E+04  1.0209E+04  1.0204E+04
       1.0198E+04  1.0191E+04  1.0184E+04  1.0177E+04  1.0171E+04  1.0167E+04  1.0166E+04  1.0168E+04  1.0173E+04  1.0181E+04
       1.0194E+04  1.0209E+04  1.0227E+04  1.0247E+04  1.0268E+04  1.0290E+04  1.0312E+04  1.0332E+04  1.0350E+04  1.0366E+04
       1.0379E+04  1.0388E+04  1.0394E+04  1.0397E+04  1.0397E+04  1.0395E+04  1.0391E+04  1.0387E+04  1.0382E+04  1.0379E+04
       1.0377E+04  1.0378E+04  1.0381E+04  1.0388E+04  1.0398E+04  1.0411E+04  1.0428E+04  1.0447E+04  1.0467E+04  1.0490E+04
       1.0512E+04  1.0534E+04  1.0555E+04  1.0574E+04  1.0590E+04  1.0603E+04  1.0612E+04  1.0618E+04  1.0621E+04  1.0622E+04
       1.0620E+04  1.0616E+04  1.0611E+04  1.0607E+04  1.0603E+04  1.0602E+04  1.0602E+04  1.0605E+04  1.0612E+04  1.0622E+04
       1.0635E+04  1.0651E+04  1.0670E+04  1.0690E+04  1.0712E+04  1.0733E+04  1.0755E+04  1.0775E+04  1.0792E+04  1.0807E+04
       1.0819E+04  1.0827E+04  1.0832E+04  1.0833E+04  1.0832E+04  1.0827E+04  1.0822E+04  1.0814E+04  1.0807E+04  1.0800E+04
[...]
   1   1.0350E+04  1.0351E+04  1.0351E+04  1.0351E+04  1.0352E+04  1.0353E+04  1.0354E+04  1.0355E+04  1.0356E+04  1.0357E+04
       1.0359E+04  1.0360E+04  1.0362E+04  1.0364E+04  1.0366E+04  1.0368E+04  1.0370E+04  1.0373E+04  1.0375E+04  1.0378E+04
       1.0381E+04  1.0383E+04  1.0386E+04  1.0390E+04  1.0393E+04  1.0396E+04  1.0400E+04  1.0403E+04  1.0407E+04  1.0410E+04
       1.0414E+04  1.0418E+04  1.0422E+04  1.0426E+04  1.0430E+04  1.0434E+04  1.0439E+04  1.0443E+04  1.0447E+04  1.0452E+04
       1.0456E+04  1.0461E+04  1.0465E+04  1.0470E+04  1.0474E+04  1.0479E+04  1.0484E+04  1.0488E+04  1.0493E+04  1.0498E+04
       1.0502E+04  1.0507E+04  1.0512E+04  1.0516E+04  1.0521E+04  1.0526E+04  1.0530E+04  1.0535E+04  1.0539E+04  1.0544E+04
       1.0548E+04  1.0553E+04  1.0557E+04  1.0561E+04  1.0566E+04  1.0570E+04  1.0574E+04  1.0578E+04  1.0582E+04  1.0586E+04
       1.0590E+04  1.0593E+04  1.0597E+04  1.0600E+04  1.0604E+04  1.0607E+04  1.0610E+04  1.0614E+04  1.0617E+04  1.0619E+04
       1.0622E+04  1.0625E+04  1.0627E+04  1.0630E+04  1.0632E+04  1.0634E+04  1.0636E+04  1.0638E+04  1.0640E+04  1.0641E+04
       1.0643E+04  1.0644E+04  1.0645E+04  1.0646E+04  1.0647E+04  1.0648E+04  1.0649E+04  1.0649E+04  1.0649E+04  1.0650E+04
1
  HEAD IN LAYER 194 AT END OF TIME STEP   1 IN STRESS PERIOD    1
  ---------------------------------------------------------------------------

 ........................................................................................................................................................................................................................................................................................................................................................................................................................................................................................................................................................................................................................................................................................................................................................................................................................................................................................................................................................................................................................................
   1   1.0351E+04  1.0351E+04  1.0351E+04  1.0351E+04  1.0352E+04  1.0353E+04  1.0354E+04  1.0355E+04  1.0356E+04  1.0357E+04
       1.0359E+04  1.0360E+04  1.0362E+04  1.0364E+04  1.0366E+04  1.0368E+04  1.0370E+04  1.0373E+04  1.0375E+04  1.0378E+04
       1.0381E+04  1.0383E+04  1.0386E+04  1.0390E+04  1.0393E+04  1.0396E+04  1.0400E+04  1.0403E+04  1.0407E+04  1.0410E+04
       1.0414E+04  1.0418E+04  1.0422E+04  1.0426E+04  1.0430E+04  1.0434E+04  1.0439E+04  1.0443E+04  1.0447E+04  1.0452E+04
       1.0456E+04  1.0461E+04  1.0465E+04  1.0470E+04  1.0474E+04  1.0479E+04  1.0484E+04  1.0488E+04  1.0493E+04  1.0498E+04
       1.0502E+04  1.0507E+04  1.0512E+04  1.0516E+04  1.0521E+04  1.0526E+04  1.0530E+04  1.0535E+04  1.0539E+04  1.0544E+04
       1.0548E+04  1.0553E+04  1.0557E+04  1.0561E+04  1.0566E+04  1.0570E+04  1.0574E+04  1.0578E+04  1.0582E+04  1.0586E+04
       1.0590E+04  1.0593E+04  1.0597E+04  1.0600E+04  1.0604E+04  1.0607E+04  1.0610E+04  1.0614E+04  1.0617E+04  1.0619E+04
       1.0622E+04  1.0625E+04  1.0627E+04  1.0630E+04  1.0632E+04  1.0634E+04  1.0636E+04  1.0638E+04  1.0640E+04  1.0641E+04
       1.0643E+04  1.0644E+04  1.0645E+04  1.0646E+04  1.0647E+04  1.0648E+04  1.0649E+04  1.0649E+04  1.0649E+04  1.0649E+04
1
  HEAD IN LAYER 195 AT END OF TIME STEP   1 IN STRESS PERIOD    1
  ---------------------------------------------------------------------------

 ........................................................................................................................................................................................................................................................................................................................................................................................................................................................................................................................................................................................................................................................................................................................................................................................................................................................................................................................................................................................................................................
   1   1.0351E+04  1.0351E+04  1.0351E+04  1.0352E+04  1.0352E+04  1.0353E+04  1.0354E+04  1.0355E+04  1.0356E+04  1.0357E+04
       1.0359E+04  1.0360E+04  1.0362E+04  1.0364E+04  1.0366E+04  1.0368E+04  1.0370E+04  1.0373E+04  1.0375E+04  1.0378E+04
       1.0381E+04  1.0384E+04  1.0387E+04  1.0390E+04  1.0393E+04  1.0396E+04  1.0400E+04  1.0403E+04  1.0407E+04  1.0410E+04
       1.0414E+04  1.0418E+04  1.0422E+04  1.0426E+04  1.0430E+04  1.0434E+04  1.0439E+04  1.0443E+04  1.0447E+04  1.0452E+04
       1.0456E+04  1.0461E+04  1.0465E+04  1.0470E+04  1.0474E+04  1.0479E+04  1.0484E+04  1.0488E+04  1.0493E+04  1.0498E+04
       1.0502E+04  1.0507E+04  1.0512E+04  1.0516E+04  1.0521E+04  1.0526E+04  1.0530E+04  1.0535E+04  1.0539E+04  1.0544E+04
       1.0548E+04  1.0553E+04  1.0557E+04  1.0561E+04  1.0566E+04  1.0570E+04  1.0574E+04  1.0578E+04  1.0582E+04  1.0586E+04
       1.0589E+04  1.0593E+04  1.0597E+04  1.0600E+04  1.0604E+04  1.0607E+04  1.0610E+04  1.0613E+04  1.0616E+04  1.0619E+04
       1.0622E+04  1.0625E+04  1.0627E+04  1.0630E+04  1.0632E+04  1.0634E+04  1.0636E+04  1.0638E+04  1.0640E+04  1.0641E+04
       1.0643E+04  1.0644E+04  1.0645E+04  1.0646E+04  1.0647E+04  1.0648E+04  1.0648E+04  1.0649E+04  1.0649E+04  1.0649E+04
1
  HEAD IN LAYER 196 AT END OF TIME STEP   1 IN STRESS PERIOD    1
  ---------------------------------------------------------------------------

 ........................................................................................................................................................................................................................................................................................................................................................................................................................................................................................................................................................................................................................................................................................................................................................................................................................................................................................................................................................................................................................................
   1   1.0351E+04  1.0351E+04  1.0351E+04  1.0352E+04  1.0352E+04  1.0353E+04  1.0354E+04  1.0355E+04  1.0356E+04  1.0357E+04
       1.0359E+04  1.0360E+04  1.0362E+04  1.0364E+04  1.0366E+04  1.0368E+04  1.0370E+04  1.0373E+04  1.0375E+04  1.0378E+04
       1.0381E+04  1.0384E+04  1.0387E+04  1.0390E+04  1.0393E+04  1.0396E+04  1.0400E+04  1.0403E+04  1.0407E+04  1.0411E+04
       1.0414E+04  1.0418E+04  1.0422E+04  1.0426E+04  1.0430E+04  1.0435E+04  1.0439E+04  1.0443E+04  1.0447E+04  1.0452E+04
       1.0456E+04  1.0461E+04  1.0465E+04  1.0470E+04  1.0474E+04  1.0479E+04  1.0484E+04  1.0488E+04  1.0493E+04  1.0498E+04
       1.0502E+04  1.0507E+04  1.0512E+04  1.0516E+04  1.0521E+04  1.0526E+04  1.0530E+04  1.0535E+04  1.0539E+04  1.0544E+04
       1.0548E+04  1.0553E+04  1.0557E+04  1.0561E+04  1.0565E+04  1.0570E+04  1.0574E+04  1.0578E+04  1.0582E+04  1.0586E+04
       1.0589E+04  1.0593E+04  1.0597E+04  1.0600E+04  1.0604E+04  1.0607E+04  1.0610E+04  1.0613E+04  1.0616E+04  1.0619E+04
       1.0622E+04  1.0625E+04  1.0627E+04  1.0630E+04  1.0632E+04  1.0634E+04  1.0636E+04  1.0638E+04  1.0640E+04  1.0641E+04
       1.0643E+04  1.0644E+04  1.0645E+04  1.0646E+04  1.0647E+04  1.0648E+04  1.0648E+04  1.0649E+04  1.0649E+04  1.0649E+04
1
  HEAD IN LAYER 197 AT END OF TIME STEP   1 IN STRESS PERIOD    1
  ---------------------------------------------------------------------------

 ........................................................................................................................................................................................................................................................................................................................................................................................................................................................................................................................................................................................................................................................................................................................................................................................................................................................................................................................................................................................................................................
   1   1.0351E+04  1.0351E+04  1.0351E+04  1.0352E+04  1.0352E+04  1.0353E+04  1.0354E+04  1.0355E+04  1.0356E+04  1.0357E+04
       1.0359E+04  1.0360E+04  1.0362E+04  1.0364E+04  1.0366E+04  1.0368E+04  1.0370E+04  1.0373E+04  1.0375E+04  1.0378E+04
       1.0381E+04  1.0384E+04  1.0387E+04  1.0390E+04  1.0393E+04  1.0396E+04  1.0400E+04  1.0403E+04  1.0407E+04  1.0411E+04
       1.0414E+04  1.0418E+04  1.0422E+04  1.0426E+04  1.0430E+04  1.0435E+04  1.0439E+04  1.0443E+04  1.0447E+04  1.0452E+04
       1.0456E+04  1.0461E+04  1.0465E+04  1.0470E+04  1.0474E+04  1.0479E+04  1.0484E+04  1.0488E+04  1.0493E+04  1.0498E+04
       1.0502E+04  1.0507E+04  1.0512E+04  1.0516E+04  1.0521E+04  1.0526E+04  1.0530E+04  1.0535E+04  1.0539E+04  1.0544E+04
       1.0548E+04  1.0553E+04  1.0557E+04  1.0561E+04  1.0565E+04  1.0570E+04  1.0574E+04  1.0578E+04  1.0582E+04  1.0586E+04
       1.0589E+04  1.0593E+04  1.0597E+04  1.0600E+04  1.0604E+04  1.0607E+04  1.0610E+04  1.0613E+04  1.0616E+04  1.0619E+04
       1.0622E+04  1.0625E+04  1.0627E+04  1.0630E+04  1.0632E+04  1.0634E+04  1.0636E+04  1.0638E+04  1.0640E+04  1.0641E+04
       1.0643E+04  1.0644E+04  1.0645E+04  1.0646E+04  1.0647E+04  1.0648E+04  1.0648E+04  1.0649E+04  1.0649E+04  1.0649E+04
1
  HEAD IN LAYER 198 AT END OF TIME STEP   1 IN STRESS PERIOD    1
  ---------------------------------------------------------------------------

 ........................................................................................................................................................................................................................................................................................................................................................................................................................................................................................................................................................................................................................................................................................................................................................................................................................................................................................................................................................................................................................................
   1   1.0351E+04  1.0351E+04  1.0351E+04  1.0352E+04  1.0352E+04  1.0353E+04  1.0354E+04  1.0355E+04  1.0356E+04  1.0357E+04
       1.0359E+04  1.0360E+04  1.0362E+04  1.0364E+04  1.0366E+04  1.0368E+04  1.0370E+04  1.0373E+04  1.0375E+04  1.0378E+04
       1.0381E+04  1.0384E+04  1.0387E+04  1.0390E+04  1.0393E+04  1.0396E+04  1.0400E+04  1.0403E+04  1.0407E+04  1.0411E+04
       1.0414E+04  1.0418E+04  1.0422E+04  1.0426E+04  1.0430E+04  1.0435E+04  1.0439E+04  1.0443E+04  1.0447E+04  1.0452E+04
       1.0456E+04  1.0461E+04  1.0465E+04  1.0470E+04  1.0474E+04  1.0479E+04  1.0484E+04  1.0488E+04  1.0493E+04  1.0498E+04
       1.0502E+04  1.0507E+04  1.0512E+04  1.0516E+04  1.0521E+04  1.0526E+04  1.0530E+04  1.0535E+04  1.0539E+04  1.0544E+04
       1.0548E+04  1.0553E+04  1.0557E+04  1.0561E+04  1.0565E+04  1.0570E+04  1.0574E+04  1.0578E+04  1.0582E+04  1.0586E+04
       1.0589E+04  1.0593E+04  1.0597E+04  1.0600E+04  1.0604E+04  1.0607E+04  1.0610E+04  1.0613E+04  1.0616E+04  1.0619E+04
       1.0622E+04  1.0625E+04  1.0627E+04  1.0630E+04  1.0632E+04  1.0634E+04  1.0636E+04  1.0638E+04  1.0640E+04  1.0641E+04
       1.0643E+04  1.0644E+04  1.0645E+04  1.0646E+04  1.0647E+04  1.0648E+04  1.0648E+04  1.0649E+04  1.0649E+04  1.0649E+04
1
  HEAD IN LAYER 199 AT END OF TIME STEP   1 IN STRESS PERIOD    1
  ---------------------------------------------------------------------------

 ........................................................................................................................................................................................................................................................................................................................................................................................................................................................................................................................................................................................................................................................................................................................................................................................................................................................................................................................................................................................................................................
   1   1.0351E+04  1.0351E+04  1.0351E+04  1.0352E+04  1.0352E+04  1.0353E+04  1.0354E+04  1.0355E+04  1.0356E+04  1.0357E+04
       1.0359E+04  1.0360E+04  1.0362E+04  1.0364E+04  1.0366E+04  1.0368E+04  1.0370E+04  1.0373E+04  1.0375E+04  1.0378E+04
       1.0381E+04  1.0384E+04  1.0387E+04  1.0390E+04  1.0393E+04  1.0396E+04  1.0400E+04  1.0403E+04  1.0407E+04  1.0411E+04
       1.0414E+04  1.0418E+04  1.0422E+04  1.0426E+04  1.0430E+04  1.0435E+04  1.0439E+04  1.0443E+04  1.0447E+04  1.0452E+04
       1.0456E+04  1.0461E+04  1.0465E+04  1.0470E+04  1.0474E+04  1.0479E+04  1.0484E+04  1.0488E+04  1.0493E+04  1.0498E+04
       1.0502E+04  1.0507E+04  1.0512E+04  1.0516E+04  1.0521E+04  1.0526E+04  1.0530E+04  1.0535E+04  1.0539E+04  1.0544E+04
       1.0548E+04  1.0553E+04  1.0557E+04  1.0561E+04  1.0565E+04  1.0570E+04  1.0574E+04  1.0578E+04  1.0582E+04  1.0586E+04
       1.0589E+04  1.0593E+04  1.0597E+04  1.0600E+04  1.0604E+04  1.0607E+04  1.0610E+04  1.0613E+04  1.0616E+04  1.0619E+04
       1.0622E+04  1.0625E+04  1.0627E+04  1.0630E+04  1.0632E+04  1.0634E+04  1.0636E+04  1.0638E+04  1.0640E+04  1.0641E+04
       1.0643E+04  1.0644E+04  1.0645E+04  1.0646E+04  1.0647E+04  1.0648E+04  1.0648E+04  1.0649E+04  1.0649E+04  1.0649E+04
1
  HEAD IN LAYER 200 AT END OF TIME STEP   1 IN STRESS PERIOD    1
  ---------------------------------------------------------------------------

 ........................................................................................................................................................................................................................................................................................................................................................................................................................................................................................................................................................................................................................................................................................................................................................................................................................................................................................................................................................................................................................................
   1   1.0351E+04  1.0351E+04  1.0351E+04  1.0352E+04  1.0352E+04  1.0353E+04  1.0354E+04  1.0355E+04  1.0356E+04  1.0357E+04
       1.0359E+04  1.0360E+04  1.0362E+04  1.0364E+04  1.0366E+04  1.0368E+04  1.0370E+04  1.0373E+04  1.0375E+04  1.0378E+04
       1.0381E+04  1.0384E+04  1.0387E+04  1.0390E+04  1.0393E+04  1.0396E+04  1.0400E+04  1.0403E+04  1.0407E+04  1.0411E+04
       1.0414E+04  1.0418E+04  1.0422E+04  1.0426E+04  1.0430E+04  1.0435E+04  1.0439E+04  1.0443E+04  1.0447E+04  1.0452E+04
       1.0456E+04  1.0461E+04  1.0465E+04  1.0470E+04  1.0474E+04  1.0479E+04  1.0484E+04  1.0488E+04  1.0493E+04  1.0498E+04
       1.0502E+04  1.0507E+04  1.0512E+04  1.0516E+04  1.0521E+04  1.0526E+04  1.0530E+04  1.0535E+04  1.0539E+04  1.0544E+04
       1.0548E+04  1.0553E+04  1.0557E+04  1.0561E+04  1.0565E+04  1.0570E+04  1.0574E+04  1.0578E+04  1.0582E+04  1.0586E+04
       1.0589E+04  1.0593E+04  1.0597E+04  1.0600E+04  1.0604E+04  1.0607E+04  1.0610E+04  1.0613E+04  1.0616E+04  1.0619E+04
       1.0622E+04  1.0625E+04  1.0627E+04  1.0630E+04  1.0632E+04  1.0634E+04  1.0636E+04  1.0638E+04  1.0640E+04  1.0641E+04
       1.0643E+04  1.0644E+04  1.0645E+04  1.0646E+04  1.0647E+04  1.0648E+04  1.0648E+04  1.0649E+04  1.0649E+04  1.0649E+04

 HEAD WILL BE SAVED ON UNIT 1013 AT END OF TIME STEP    1, STRESS PERIOD    1


  VOLUME BUDGET FOR ENTIRE MODEL AT END OF TIME STEP    1, STRESS PERIOD   1
  ---------------------------------------------------------------------------------------------------

     CUMULATIVE VOLUME      L**3       RATES FOR THIS TIME STEP      L**3/T          PACKAGE NAME    
     ------------------                 ------------------------                     ----------------

           IN:                                      IN:
           ---                                      ---
                 CHD =        1524.5755                   CHD =        1524.5755     CHD_0                            

            TOTAL IN =        1524.5755              TOTAL IN =        1524.5755

          OUT:                                     OUT:
          ----                                     ----
                 CHD =        1524.5601                   CHD =        1524.5601     CHD_0                            

           TOTAL OUT =        1524.5601             TOTAL OUT =        1524.5601

            IN - OUT =       1.5408E-02              IN - OUT =       1.5408E-02

 PERCENT DISCREPANCY =           0.00     PERCENT DISCREPANCY =           0.00




         TIME SUMMARY AT END OF TIME STEP    1 IN STRESS PERIOD    1
                          TIME STEP LENGTH =    1.00000    
                        STRESS PERIOD TIME =    1.00000    
                     TOTAL SIMULATION TIME =    1.00000    

end timestep

